variable        infile index acetone_octanol_50p.data   # The name of the (edited) data file

#>>>>>> Simulation settings <<<<<<<

units		 real		#angstroms = length -
atom_style	 full		#How the atoms are defined in the input data file
boundary        p p p           #periodic box in x, y and z
pair_style	 lj/cut/coul/long 12.0    #'lj/cut/coul/long
pair_modify     tail yes            #Tail corrections
pair_modify     mix arithmetic      #Lorentz-Berthelot pair interactions between dissimilar atom

special_bonds   lj/coul 0.0 0.0 0.5
kspace_style    ewald 0.0001
bond_style      harmonic
angle_style     harmonic
dihedral_style  opls

# inputs settings
variable   simulationTemp  index 310     #Simulation temperature
variable   simulationPress equal 0.987	 #Simulation pressure

# Output files frequencies
variable        dumpfreq   index 1000          #Output frequency of dump information to dump
variable        thermofreq index 1000          #Output frequency of property information to log
variable        printfreq  index 1000          #Output frequency of information to be printed
variable        restartfreq index 1000000      #Output frequency of restart files

# Simulation run times (equilibration and production)
variable        NVT_equib  index 100000       # Equilibration run length (in timesteps)
variable        NVT_prod   index 30000       # Simulation run length  (in timesteps)

# Output
variable    step        equal step
variable    density     equal density
variable    temp        equal temp
variable    press       equal press
variable    ke          equal ke
variable    pe          equal pe
variable    etotal      equal etotal
variable    enthalpy    equal enthalpy

# >>>>>>>>>>> Reading data, Neighbor list settings, energy minimization, assigning initial velocities & specifying thermodynamic property output style to log files <<<<<<<<<

read_data	acetone_octanol_50p.data
  orthogonal box = (0 0 0) to (40 40 40)
  reading atoms ...
  3700 atoms
  scanning bonds ...
  scanning angles ...
  scanning dihedrals ...
  reading bonds ...
  3500 bonds
  reading angles ...
  6400 angles
  reading dihedrals ...
  7800 dihedrals
neighbor        1.0 bin
neigh_modify    delay 0 every 1 check yes page 1000000 one 20000
timestep        1.0

minimize        1e-4 1e-6 10000 100000        #Energy minimize before creating velocities
Ewald initialization ...
  G vector (1/distance) = 0.165411
  estimated absolute RMS force accuracy = 0.0336699
  estimated relative force accuracy = 0.000101396
  KSpace vectors: actual max1d max3d = 257 5 665
                  kxmax kymax kzmax  = 5 5 5
  update every 1 steps, delay 0 steps, check yes
Step Temp E_pair E_mol TotEng Press
0            0   -202.99859    1115.7168    912.71824   -2897.9061
Loop time of 4.21087 on 48 procs for 498 steps with 3700 atoms

Minimization stats:
  Stopping criterion = energy tolerance
  Energy initial, next-to-last, final =
  Force two-norm initial, final = 1618.4 27.6345
  Force max component initial, final = 252.963 7.05596
  Final line search alpha, max atom move = 0.00665454 0.0469542
  Iterations, force evaluations = 498 989

velocity        all create  310 317879265 units box
velocity        all zero linear units box

# The 'velocity' command line above assigns initial velocities to the atoms in our data file, see the LAMMPS 'velocity' command
# The number '886874' is the seed number which helps LAMMPS to consistently assign the same randomized velocities for the same simulation with the same seed number
# Changing that seed number for your simulation of a given system is one easy way to run an 'independent' simulation of the same system as taught in class
# You will need to do this for your homework

thermo_style    custom step vol temp press ke pe etotal enthalpy evdwl ecoul epair ebond eangle edihed eimp emol elong etail lx ly lz xy xz yz density
thermo          1000

fix npt_density all npt temp 310 310 100 iso 0.987 0.987 1000

run 50000
Ewald initialization ...
  G vector (1/distance) = 0.165411
  estimated absolute RMS force accuracy = 0.0336699
  estimated relative force accuracy = 0.000101396
  KSpace vectors: actual max1d max3d = 257 5 665
                  kxmax kymax kzmax  = 5 5 5
Step Volume Temp Press KinEng PotEng TotEng Enthalpy E_vdwl E_coul E_pair E_bond E_angle E_dihed E_impro E_mol E_long E_tail Lx Ly Lz Xy Xz Yz Density
498        64000          310    2090.6139    3418.0651    -2299.743     1118.322    3069.6474   -1421.9979    2892.2515   -2762.9907     20.09727    127.76841    315.38199            0    463.24767   -4233.2443   -34.010477           40           40           40            0            0            0   0.48858288
Averages over the last 26 of 52 rows, steps 26000 to 50498:
Volume Temp Press KinEng PotEng TotEng Enthalpy E_vdwl E_coul E_pair E_bond E_angle E_dihed E_impro E_mol E_long E_tail Lx Ly Lz Xy Xz Yz Density
39514.4 310.467 242.757 3423.22 496.534 3919.75 4059.84 -1370.47 2873.94 -2732.06 1122.93 1643.32 462.345 0 3228.6 -4235.53 -55.0898 34.0603 34.0603 34.0603 0 0 0 0.791402
Loop time of 162.073 on 48 procs for 50000 steps with 3700 atoms

unfix npt_density

fix reshape_box all deform 1 x final 0.0 36.6857 y final 0.0 36.6857 z final 0.0 36.6857 units box

run 100000
Ewald initialization ...
  G vector (1/distance) = 0.170441
  estimated absolute RMS force accuracy = 0.0383863
  estimated relative force accuracy = 0.000115599
  KSpace vectors: actual max1d max3d = 128 4 364
                  kxmax kymax kzmax  = 4 4 4
Step Volume Temp Press KinEng PotEng TotEng Enthalpy E_vdwl E_coul E_pair E_bond E_angle E_dihed E_impro E_mol E_long E_tail Lx Ly Lz Xy Xz Yz Density
50498    39345.996    307.78721    68.642734    3393.6668    516.78402    3910.4508    3949.8395   -1376.5932    3011.6307   -2728.5314    1122.1624    1660.4201     462.7329            0    3245.3154   -4363.5689   -55.321271    34.012105    34.012105    34.012105            0            0            0   0.79472645
Averages over the last 51 of 102 rows, steps 101000 to 150498:
Volume Temp Press KinEng PotEng TotEng Enthalpy E_vdwl E_coul E_pair E_bond E_angle E_dihed E_impro E_mol E_long E_tail Lx Ly Lz Xy Xz Yz Density
46791.2 307.787 -109661 3393.67 7496.26 10889.9 -64360.2 -1481.18 3084.77 -2758.48 8131.59 1660.42 462.733 0 10254.7 -4362.07 -46.5686 36.0305 36.0305 36.0305 0 0 0 0.668989
Loop time of 231.199 on 48 procs for 100000 steps with 3700 atoms

# >>>>>>>>>  Equilibration run <<<<<<<<<<<<<<<<<<<<<<<<<<<<<<<<<<

fix             NVT_equib all nvt temp 310 310 100

print           "Step Density Temperature Pressure KinEng PotEng TotEng" file Properties_equib_acetone50p.txt
Step Density Temperature Pressure KinEng PotEng TotEng
fix             PRINT_equib all print 1000 "$(v_step) $(v_density) $(v_temp) $(v_press) $(v_pe) $(v_ke) $(v_etotal) $(v_enthalpy)" append Properties_equib_acetone50p.txt title ""
# The 'print' and fix print' commands as used above will create a file named 'Properties_equib.txt' which allows you to quickly make plots to test for equilibration

run             100000
Ewald initialization ...
  G vector (1/distance) = 0.168113
  estimated absolute RMS force accuracy = 0.0450476
  estimated relative force accuracy = 0.00013566
  KSpace vectors: actual max1d max3d = 128 4 364
                  kxmax kymax kzmax  = 4 4 4
Step Volume Temp Press KinEng PotEng TotEng Enthalpy E_vdwl E_coul E_pair E_bond E_angle E_dihed E_impro E_mol E_long E_tail Lx Ly Lz Xy Xz Yz Density
150498    49373.104    307.78721    -140000.4    3393.6668    12134.035    15527.702   -85280.436   -1447.5367    3047.3181    -2702.752    12713.634    1660.4201     462.7329            0    14836.787   -4302.5335    -44.08616      36.6857      36.6857      36.6857            0            0            0   0.63332668
Loop time of 280.567 on 48 procs for 100000 steps with 3700 atoms

unfix           NVT_equib

# >>>>>  Production run <<<<<<<<<<<<<<<<<<<<<<

fix             NVT_prod all nvt temp 310 310 100

print           "Step Density Temperature Pressure KinEng PotEng TotEng" file Properties_prod_acetone50p.txt
Step Density Temperature Pressure KinEng PotEng TotEng
fix             PRINT_prod all print 1000 "$(v_step) $(v_density) $(v_temp) $(v_press) $(v_pe) $(v_ke) $(v_etotal) $(v_enthalpy)" append Properties_prod_acetone50p.txt title ""

dump            DUMP_file all custom 1000 acetone_octanol_50p.lammpstrj id type x y z xu yu zu vx vy vz mol

run             30000
Ewald initialization ...
  G vector (1/distance) = 0.168113
  estimated absolute RMS force accuracy = 0.0450476
  estimated relative force accuracy = 0.00013566
  KSpace vectors: actual max1d max3d = 128 4 364
                  kxmax kymax kzmax  = 4 4 4
Step Volume Temp Press KinEng PotEng TotEng Enthalpy E_vdwl E_coul E_pair E_bond E_angle E_dihed E_impro E_mol E_long E_tail Lx Ly Lz Xy Xz Yz Density
250498    49373.104    305.45629   -1479.0625    3367.9661    777.32732    4145.2934    3080.2855   -1143.1431    2949.9664   -2495.7439    1140.6665    1687.9309    444.47387            0    3273.0712   -4302.5672    -44.08616      36.6857      36.6857      36.6857            0            0            0   0.63332668
Loop time of 87.1461 on 48 procs for 30000 steps with 3700 atoms

write_data      restart.acetone_octanol_50p.final.data
Ewald initialization ...
  G vector (1/distance) = 0.168113
  estimated absolute RMS force accuracy = 0.0450476
  estimated relative force accuracy = 0.00013566
  KSpace vectors: actual max1d max3d = 128 4 364
                  kxmax kymax kzmax  = 4 4 4
