variable        infile index acetone.data   # The name of the (edited) data file

#>>>>>> Simulation settings <<<<<<<

units		 real		#angstroms = length -
atom_style	 full		#How the atoms are defined in the input data file
boundary        p p p           #periodic box in x, y and z
pair_style	 lj/cut/coul/long 14.0    #'lj/cut/coul/long
pair_modify     tail yes            #Tail corrections
pair_modify     mix arithmetic      #Lorentz-Berthelot pair interactions between dissimilar atom

special_bonds   lj/coul 0.0 0.0 0.5
kspace_style    ewald 0.0001
bond_style      harmonic
angle_style     harmonic
dihedral_style  opls

# inputs settings
variable   simulationTemp  index 310     #Simulation temperature
variable   simulationPress equal 0.987	 #Simulation pressure

# Output files frequencies
variable        dumpfreq   index 1000          #Output frequency of dump information to dump
variable        thermofreq index 1000          #Output frequency of property information to log
variable        printfreq  index 1000          #Output frequency of information to be printed
variable        restartfreq index 1000000      #Output frequency of restart files

# Simulation run times (equilibration and production)
variable        NVT_equib  index 100000       # Equilibration run length (in timesteps)
variable        NVT_prod   index 30000       # Simulation run length  (in timesteps)

# Output
variable    step        equal step
variable    density     equal density
variable    temp        equal temp
variable    press       equal press
variable    ke          equal ke
variable    pe          equal pe
variable    etotal      equal etotal
variable    enthalpy    equal enthalpy

# >>>>>>>>>>> Reading data, Neighbor list settings, energy minimization, assigning initial velocities & specifying thermodynamic property output style to log files <<<<<<<<<

read_data	acetone.data
  orthogonal box = (0 0 0) to (40 40 40)
  reading atoms ...
  2000 atoms
  scanning bonds ...
  scanning angles ...
  scanning dihedrals ...
  reading bonds ...
  1800 bonds
  reading angles ...
  3000 angles
  reading dihedrals ...
  2400 dihedrals
neighbor        1.0 bin
neigh_modify    delay 0 every 1 check yes page 1000000 one 20000
timestep        1.0

minimize        1e-4 1e-6 10000 100000        #Energy minimize before creating velocities
Ewald initialization ...
  G vector (1/distance) = 0.141245
  estimated absolute RMS force accuracy = 0.0350128
  estimated relative force accuracy = 0.00010544
  KSpace vectors: actual max1d max3d = 128 4 364
                  kxmax kymax kzmax  = 4 4 4
  update every 1 steps, delay 0 steps, check yes
Step Temp E_pair E_mol TotEng Press
0            0   -1046.0975    530.40915   -515.68835    4379.9809
Loop time of 2.24213 on 48 procs for 416 steps with 2000 atoms

Minimization stats:
  Stopping criterion = energy tolerance
  Energy initial, next-to-last, final =
  Force two-norm initial, final = 1923.6 29.633
  Force max component initial, final = 616.051 5.8154
  Final line search alpha, max atom move = 0.0052304 0.0304168
  Iterations, force evaluations = 416 825

velocity        all create  310 317879265 units box
velocity        all zero linear units box

# The 'velocity' command line above assigns initial velocities to the atoms in our data file, see the LAMMPS 'velocity' command
# The number '886874' is the seed number which helps LAMMPS to consistently assign the same randomized velocities for the same simulation with the same seed number
# Changing that seed number for your simulation of a given system is one easy way to run an 'independent' simulation of the same system as taught in class
# You will need to do this for your homework

thermo_style    custom step vol temp press ke pe etotal enthalpy evdwl ecoul epair ebond eangle edihed eimp emol elong etail lx ly lz xy xz yz density
thermo          1000

fix npt_density all npt temp 310 310 100 iso 0.987 0.987 1000

run 50000
Ewald initialization ...
  G vector (1/distance) = 0.141245
  estimated absolute RMS force accuracy = 0.0350128
  estimated relative force accuracy = 0.00010544
  KSpace vectors: actual max1d max3d = 128 4 364
                  kxmax kymax kzmax  = 4 4 4
Step Volume Temp Press KinEng PotEng TotEng Enthalpy E_vdwl E_coul E_pair E_bond E_angle E_dihed E_impro E_mol E_long E_tail Lx Ly Lz Xy Xz Yz Density
416        64000          310    1009.8813    1847.1782   -3217.9226   -1370.7444   -428.14717    -759.5357    301.62066   -3249.4705   0.95742567    22.789768    7.8006893            0    31.547883   -2791.5555   -7.4689984           40           40           40            0            0            0   0.30138497
Averages over the last 26 of 52 rows, steps 26000 to 50416:
Volume Temp Press KinEng PotEng TotEng Enthalpy E_vdwl E_coul E_pair E_bond E_angle E_dihed E_impro E_mol E_long E_tail Lx Ly Lz Xy Xz Yz Density
24863.5 310.427 -78.0709 1849.72 -1850.03 -0.306752 -30.7162 -902.08 380.35 -3313.54 559.291 794.623 109.595 0 1463.51 -2791.81 -19.2293 29.1862 29.1862 29.1862 0 0 0 0.77593
Loop time of 139.553 on 48 procs for 50000 steps with 2000 atoms

unfix npt_density

fix reshape_box all deform 1 x final 0.0 36.6857 y final 0.0 36.6857 z final 0.0 36.6857 units box

run 100000
Ewald initialization ...
  G vector (1/distance) = 0.14948
  estimated absolute RMS force accuracy = 0.0416219
  estimated relative force accuracy = 0.000125343
  KSpace vectors: actual max1d max3d = 61 3 171
                  kxmax kymax kzmax  = 3 3 3
Step Volume Temp Press KinEng PotEng TotEng Enthalpy E_vdwl E_coul E_pair E_bond E_angle E_dihed E_impro E_mol E_long E_tail Lx Ly Lz Xy Xz Yz Density
50416    25038.507    306.38965    313.02137    1825.6654   -1840.2113   -14.545942    99.757236   -883.65946    537.51156   -3301.9968    573.41391     768.3134    120.05816            0    1461.7855   -2955.8489    -19.09123    29.255182    29.255182    29.255182            0            0            0   0.77035897
Averages over the last 51 of 102 rows, steps 101000 to 150416:
Volume Temp Press KinEng PotEng TotEng Enthalpy E_vdwl E_coul E_pair E_bond E_angle E_dihed E_impro E_mol E_long E_tail Lx Ly Lz Xy Xz Yz Density
42526.1 306.39 -234031 1825.67 35583.1 37408.8 -109531 -538.841 922.635 -2570.01 37264.8 768.313 120.058 0 38153.1 -2953.8 -11.3403 34.8706 34.8706 34.8706 0 0 0 0.457598
Loop time of 179.294 on 48 procs for 100000 steps with 2000 atoms

# >>>>>>>>>  Equilibration run <<<<<<<<<<<<<<<<<<<<<<<<<<<<<<<<<<

fix             NVT_equib all nvt temp 310 310 100

print           "Step Density Temperature Pressure KinEng PotEng TotEng" file Properties_equib_acetone.txt
Step Density Temperature Pressure KinEng PotEng TotEng
fix             PRINT_equib all print 1000 "$(v_step) $(v_density) $(v_temp) $(v_press) $(v_pe) $(v_ke) $(v_etotal) $(v_enthalpy)" append Properties_equib_acetone.txt title ""
# The 'print' and fix print' commands as used above will create a file named 'Properties_equib.txt' which allows you to quickly make plots to test for equilibration

run             100000
Ewald initialization ...
  G vector (1/distance) = 0.143569
  estimated absolute RMS force accuracy = 0.0337157
  estimated relative force accuracy = 0.000101534
  KSpace vectors: actual max1d max3d = 128 4 364
                  kxmax kymax kzmax  = 4 4 4
Step Volume Temp Press KinEng PotEng TotEng Enthalpy E_vdwl E_coul E_pair E_bond E_angle E_dihed E_impro E_mol E_long E_tail Lx Ly Lz Xy Xz Yz Density
150416    49373.104    306.38965   -281729.94    1825.6654    60908.431    62734.096   -140127.26   -417.89698    907.84342   -2346.9298    62366.989     768.3134    120.05816            0    63255.361   -2836.8762   -9.6817065      36.6857      36.6857      36.6857            0            0            0   0.39067096
Loop time of 250.617 on 48 procs for 100000 steps with 2000 atoms

unfix           NVT_equib

# >>>>>  Production run <<<<<<<<<<<<<<<<<<<<<<

fix             NVT_prod all nvt temp 310 310 100

print           "Step Density Temperature Pressure KinEng PotEng TotEng" file Properties_prod_acetone.txt
Step Density Temperature Pressure KinEng PotEng TotEng
fix             PRINT_prod all print 1000 "$(v_step) $(v_density) $(v_temp) $(v_press) $(v_pe) $(v_ke) $(v_etotal) $(v_enthalpy)" append Properties_prod_acetone.txt title ""

dump            DUMP_file all custom 1000 acetone.lammpstrj id type x y z xu yu zu vx vy vz mol

run             30000
Ewald initialization ...
  G vector (1/distance) = 0.143569
  estimated absolute RMS force accuracy = 0.0337157
  estimated relative force accuracy = 0.000101534
  KSpace vectors: actual max1d max3d = 128 4 364
                  kxmax kymax kzmax  = 4 4 4
Step Volume Temp Press KinEng PotEng TotEng Enthalpy E_vdwl E_coul E_pair E_bond E_angle E_dihed E_impro E_mol E_long E_tail Lx Ly Lz Xy Xz Yz Density
250416    49373.104    310.52997   -363.56283    1850.3361   -1568.7285    281.60752    19.821893   -686.78867    463.26746   -3054.9256    580.93229      789.097    116.16776            0    1486.1971   -2831.4044   -9.6817065      36.6857      36.6857      36.6857            0            0            0   0.39067096
Loop time of 79.9545 on 48 procs for 30000 steps with 2000 atoms

write_data      restart.acetone.final.data
Ewald initialization ...
  G vector (1/distance) = 0.143569
  estimated absolute RMS force accuracy = 0.0337157
  estimated relative force accuracy = 0.000101534
  KSpace vectors: actual max1d max3d = 128 4 364
                  kxmax kymax kzmax  = 4 4 4
