variable        infile index acetone_octanol_25p.data   # The name of the (edited) data file

#>>>>>> Simulation settings <<<<<<<

units		 real		#angstroms = length -
atom_style	 full		#How the atoms are defined in the input data file
boundary        p p p           #periodic box in x, y and z
pair_style	 lj/cut/coul/long 12.0    #'lj/cut/coul/long
pair_modify     tail yes            #Tail corrections
pair_modify     mix arithmetic      #Lorentz-Berthelot pair interactions between dissimilar atom

special_bonds   lj/coul 0.0 0.0 0.5
kspace_style    ewald 0.0001
bond_style      harmonic
angle_style     harmonic
dihedral_style  opls

# inputs settings
variable   simulationTemp  index 310     #Simulation temperature
variable   simulationPress equal 0.987	 #Simulation pressure

# Output files frequencies
variable        dumpfreq   index 1000          #Output frequency of dump information to dump
variable        thermofreq index 1000          #Output frequency of property information to log
variable        printfreq  index 1000          #Output frequency of information to be printed
variable        restartfreq index 1000000      #Output frequency of restart files

# Simulation run times (equilibration and production)
variable        NVT_equib  index 100000       # Equilibration run length (in timesteps)
variable        NVT_prod   index 30000       # Simulation run length  (in timesteps)

# Output
variable    step        equal step
variable    density     equal density
variable    temp        equal temp
variable    press       equal press
variable    ke          equal ke
variable    pe          equal pe
variable    etotal      equal etotal
variable    enthalpy    equal enthalpy

# >>>>>>>>>>> Reading data, Neighbor list settings, energy minimization, assigning initial velocities & specifying thermodynamic property output style to log files <<<<<<<<<

read_data	acetone_octanol_25p.data
  orthogonal box = (0 0 0) to (40 40 40)
  reading atoms ...
  2850 atoms
  scanning bonds ...
  scanning angles ...
  scanning dihedrals ...
  reading bonds ...
  2650 bonds
  reading angles ...
  4700 angles
  reading dihedrals ...
  5100 dihedrals
neighbor        1.0 bin
neigh_modify    delay 0 every 1 check yes page 1000000 one 20000
timestep        1.0

minimize        1e-4 1e-6 10000 100000        #Energy minimize before creating velocities
Ewald initialization ...
  G vector (1/distance) = 0.165596
  estimated absolute RMS force accuracy = 0.0336911
  estimated relative force accuracy = 0.00010146
  KSpace vectors: actual max1d max3d = 257 5 665
                  kxmax kymax kzmax  = 5 5 5
  update every 1 steps, delay 0 steps, check yes
Step Temp E_pair E_mol TotEng Press
0            0   -613.98348    823.06275    209.07927    512.33852
Loop time of 3.5913 on 48 procs for 486 steps with 2850 atoms

Minimization stats:
  Stopping criterion = energy tolerance
  Energy initial, next-to-last, final =
  Force two-norm initial, final = 2006.12 30.942
  Force max component initial, final = 631.709 4.08232
  Final line search alpha, max atom move = 0.00357232 0.0145834
  Iterations, force evaluations = 486 964

velocity        all create  310 317879265 units box
velocity        all zero linear units box

# The 'velocity' command line above assigns initial velocities to the atoms in our data file, see the LAMMPS 'velocity' command
# The number '886874' is the seed number which helps LAMMPS to consistently assign the same randomized velocities for the same simulation with the same seed number
# Changing that seed number for your simulation of a given system is one easy way to run an 'independent' simulation of the same system as taught in class
# You will need to do this for your homework

thermo_style    custom step vol temp press ke pe etotal enthalpy evdwl ecoul epair ebond eangle edihed eimp emol elong etail lx ly lz xy xz yz density
thermo          1000

fix npt_density all npt temp 310 310 100 iso 0.987 0.987 1000

run 50000
Ewald initialization ...
  G vector (1/distance) = 0.165596
  estimated absolute RMS force accuracy = 0.0336911
  estimated relative force accuracy = 0.00010146
  KSpace vectors: actual max1d max3d = 257 5 665
                  kxmax kymax kzmax  = 5 5 5
Step Volume Temp Press KinEng PotEng TotEng Enthalpy E_vdwl E_coul E_pair E_bond E_angle E_dihed E_impro E_mol E_long E_tail Lx Ly Lz Xy Xz Yz Density
486        64000          310    1700.9513    2632.6216   -2841.1035    -208.4819    1379.1425   -1143.2114    1796.8679   -3097.8044    11.164253    78.890934    166.64573            0    256.70092    -3751.461   -21.515171           40           40           40            0            0            0   0.39498392
Averages over the last 26 of 52 rows, steps 26000 to 50486:
Volume Temp Press KinEng PotEng TotEng Enthalpy E_vdwl E_coul E_pair E_bond E_angle E_dihed E_impro E_mol E_long E_tail Lx Ly Lz Xy Xz Yz Density
31988.3 310.069 185.179 2633.21 -652.844 1980.37 2066.11 -1149.87 1881.62 -3023.64 862.376 1219.08 289.346 0 2370.8 -3755.4 -43.0505 31.7438 31.7438 31.7438 0 0 0 0.790338
Loop time of 136.602 on 48 procs for 50000 steps with 2850 atoms

unfix npt_density

fix reshape_box all deform 1 x final 0.0 36.6857 y final 0.0 36.6857 z final 0.0 36.6857 units box

run 100000
Ewald initialization ...
  G vector (1/distance) = 0.172632
  estimated absolute RMS force accuracy = 0.035434
  estimated relative force accuracy = 0.000106708
  KSpace vectors: actual max1d max3d = 128 4 364
                  kxmax kymax kzmax  = 4 4 4
Step Volume Temp Press KinEng PotEng TotEng Enthalpy E_vdwl E_coul E_pair E_bond E_angle E_dihed E_impro E_mol E_long E_tail Lx Ly Lz Xy Xz Yz Density
50486    32249.776    307.03707     1457.072    2607.4594   -633.64991    1973.8095     2659.114   -1119.4868    2013.0903   -3021.9181    866.31024    1244.3319    277.62604            0    2388.2682   -3915.5217    -42.69707     31.83041     31.83041     31.83041            0            0            0   0.78384952
Averages over the last 51 of 102 rows, steps 101000 to 150486:
Volume Temp Press KinEng PotEng TotEng Enthalpy E_vdwl E_coul E_pair E_bond E_angle E_dihed E_impro E_mol E_long E_tail Lx Ly Lz Xy Xz Yz Density
44779.3 307.037 -177012 2607.46 18652 21259.5 -95410.7 -1020.85 2206.33 -2727.05 19857.1 1244.33 277.626 0 21379.1 -3912.54 -30.8623 35.4963 35.4963 35.4963 0 0 0 0.566582
Loop time of 190.128 on 48 procs for 100000 steps with 2850 atoms

# >>>>>>>>>  Equilibration run <<<<<<<<<<<<<<<<<<<<<<<<<<<<<<<<<<

fix             NVT_equib all nvt temp 310 310 100

print           "Step Density Temperature Pressure KinEng PotEng TotEng" file Properties_equib_acetone25p.txt
Step Density Temperature Pressure KinEng PotEng TotEng
fix             PRINT_equib all print 1000 "$(v_step) $(v_density) $(v_temp) $(v_press) $(v_pe) $(v_ke) $(v_etotal) $(v_enthalpy)" append Properties_equib_acetone25p.txt title ""
# The 'print' and fix print' commands as used above will create a file named 'Properties_equib.txt' which allows you to quickly make plots to test for equilibration

run             100000
Ewald initialization ...
  G vector (1/distance) = 0.168295
  estimated absolute RMS force accuracy = 0.0454416
  estimated relative force accuracy = 0.000136846
  KSpace vectors: actual max1d max3d = 128 4 364
                  kxmax kymax kzmax  = 4 4 4
Step Volume Temp Press KinEng PotEng TotEng Enthalpy E_vdwl E_coul E_pair E_bond E_angle E_dihed E_impro E_mol E_long E_tail Lx Ly Lz Xy Xz Yz Density
150486    49373.104    307.03707   -220246.36    2607.4594    31707.767    34315.227   -124274.51   -910.04076    2164.4142   -2560.0426    32745.852    1244.3319    277.62604            0     34267.81   -3814.4161    -27.88909      36.6857      36.6857      36.6857            0            0            0   0.51199882
Loop time of 238.96 on 48 procs for 100000 steps with 2850 atoms

unfix           NVT_equib

# >>>>>  Production run <<<<<<<<<<<<<<<<<<<<<<

fix             NVT_prod all nvt temp 310 310 100

print           "Step Density Temperature Pressure KinEng PotEng TotEng" file Properties_prod_acetone25p.txt
Step Density Temperature Pressure KinEng PotEng TotEng
fix             PRINT_prod all print 1000 "$(v_step) $(v_density) $(v_temp) $(v_press) $(v_pe) $(v_ke) $(v_etotal) $(v_enthalpy)" append Properties_prod_acetone25p.txt title ""

dump            DUMP_file all custom 1000 acetone_octanol_25p.lammpstrj id type x y z xu yu zu vx vy vz mol

run             30000
Ewald initialization ...
  G vector (1/distance) = 0.168295
  estimated absolute RMS force accuracy = 0.0454416
  estimated relative force accuracy = 0.000136846
  KSpace vectors: actual max1d max3d = 128 4 364
                  kxmax kymax kzmax  = 4 4 4
Step Volume Temp Press KinEng PotEng TotEng Enthalpy E_vdwl E_coul E_pair E_bond E_angle E_dihed E_impro E_mol E_long E_tail Lx Ly Lz Xy Xz Yz Density
250486    49373.104    317.78629   -67.612992    2698.7454   -420.49097    2278.2544    2229.5693   -875.89184     1946.543   -2739.5966    806.02538    1203.6043    309.47589            0    2319.1056   -3810.2477    -27.88909      36.6857      36.6857      36.6857            0            0            0   0.51199882
Loop time of 74.6208 on 48 procs for 30000 steps with 2850 atoms

write_data      restart.acetone_octanol_25p.final.data
Ewald initialization ...
  G vector (1/distance) = 0.168295
  estimated absolute RMS force accuracy = 0.0454416
  estimated relative force accuracy = 0.000136846
  KSpace vectors: actual max1d max3d = 128 4 364
                  kxmax kymax kzmax  = 4 4 4
