variable        infile index acetone_octanol_75p.data   # The name of the (edited) data file

#>>>>>> Simulation settings <<<<<<<

units		 real		#angstroms = length -
atom_style	 full		#How the atoms are defined in the input data file
boundary        p p p           #periodic box in x, y and z
pair_style	 lj/cut/coul/long 12.0    #'lj/cut/coul/long
pair_modify     tail yes            #Tail corrections
pair_modify     mix arithmetic      #Lorentz-Berthelot pair interactions between dissimilar atom

special_bonds   lj/coul 0.0 0.0 0.5
kspace_style    ewald 0.0001
bond_style      harmonic
angle_style     harmonic
dihedral_style  opls

# inputs settings
variable   simulationTemp  index 310     #Simulation temperature
variable   simulationPress equal 0.987	 #Simulation pressure

# Output files frequencies
variable        dumpfreq   index 1000          #Output frequency of dump information to dump
variable        thermofreq index 1000          #Output frequency of property information to log
variable        printfreq  index 1000          #Output frequency of information to be printed
variable        restartfreq index 1000000      #Output frequency of restart files

# Simulation run times (equilibration and production)
variable        NVT_equib  index 100000       # Equilibration run length (in timesteps)
variable        NVT_prod   index 30000       # Simulation run length  (in timesteps)

# Output
variable    step        equal step
variable    density     equal density
variable    temp        equal temp
variable    press       equal press
variable    ke          equal ke
variable    pe          equal pe
variable    etotal      equal etotal
variable    enthalpy    equal enthalpy

# >>>>>>>>>>> Reading data, Neighbor list settings, energy minimization, assigning initial velocities & specifying thermodynamic property output style to log files <<<<<<<<<

read_data	acetone_octanol_75p.data
  orthogonal box = (0 0 0) to (40 40 40)
  reading atoms ...
  4550 atoms
  scanning bonds ...
  scanning angles ...
  scanning dihedrals ...
  reading bonds ...
  4350 bonds
  reading angles ...
  8100 angles
  reading dihedrals ...
  10500 dihedrals
neighbor        1.0 bin
neigh_modify    delay 0 every 1 check yes page 1000000 one 20000
timestep        1.0

minimize        1e-4 1e-6 10000 100000        #Energy minimize before creating velocities
Ewald initialization ...
  G vector (1/distance) = 0.165518
  estimated absolute RMS force accuracy = 0.033682
  estimated relative force accuracy = 0.000101432
  KSpace vectors: actual max1d max3d = 257 5 665
                  kxmax kymax kzmax  = 5 5 5
  update every 1 steps, delay 0 steps, check yes
Step Temp E_pair E_mol TotEng Press
0            0    136.26699    1408.3709    1544.6379   -6769.2719
Loop time of 3.56547 on 48 procs for 395 steps with 4550 atoms

Minimization stats:
  Stopping criterion = energy tolerance
  Energy initial, next-to-last, final =
  Force two-norm initial, final = 2080.42 25.2554
  Force max component initial, final = 681.178 3.04398
  Final line search alpha, max atom move = 0.00595075 0.018114
  Iterations, force evaluations = 395 786

velocity        all create  310 317879265 units box
velocity        all zero linear units box

# The 'velocity' command line above assigns initial velocities to the atoms in our data file, see the LAMMPS 'velocity' command
# The number '886874' is the seed number which helps LAMMPS to consistently assign the same randomized velocities for the same simulation with the same seed number
# Changing that seed number for your simulation of a given system is one easy way to run an 'independent' simulation of the same system as taught in class
# You will need to do this for your homework

thermo_style    custom step vol temp press ke pe etotal enthalpy evdwl ecoul epair ebond eangle edihed eimp emol elong etail lx ly lz xy xz yz density
thermo          1000

fix npt_density all npt temp 310 310 100 iso 0.987 0.987 1000

run 50000
Ewald initialization ...
  G vector (1/distance) = 0.165518
  estimated absolute RMS force accuracy = 0.033682
  estimated relative force accuracy = 0.000101432
  KSpace vectors: actual max1d max3d = 257 5 665
                  kxmax kymax kzmax  = 5 5 5
Step Volume Temp Press KinEng PotEng TotEng Enthalpy E_vdwl E_coul E_pair E_bond E_angle E_dihed E_impro E_mol E_long E_tail Lx Ly Lz Xy Xz Yz Density
395        64000          310    2413.4213    4203.5085   -1800.4375    2403.0711    4655.6966    -1782.276    4032.9678   -2469.8684    28.477346    183.36676    457.58685            0    669.43096   -4720.5603   -49.345281           40           40           40            0            0            0   0.58218183
Averages over the last 26 of 52 rows, steps 26000 to 50395:
Volume Temp Press KinEng PotEng TotEng Enthalpy E_vdwl E_coul E_pair E_bond E_angle E_dihed E_impro E_mol E_long E_tail Lx Ly Lz Xy Xz Yz Density
46612.8 309.706 -152.208 4199.52 1576.08 5775.6 5671.55 -1604.83 3753.63 -2575.12 1420.86 2098.35 631.984 0 4151.19 -4723.91 -67.7563 35.9886 35.9886 35.9886 0 0 0 0.799398
Loop time of 175.43 on 48 procs for 50000 steps with 4550 atoms

unfix npt_density

fix reshape_box all deform 1 x final 0.0 36.6857 y final 0.0 36.6857 z final 0.0 36.6857 units box

run 100000
Ewald initialization ...
  G vector (1/distance) = 0.168853
  estimated absolute RMS force accuracy = 0.0430318
  estimated relative force accuracy = 0.000129589
  KSpace vectors: actual max1d max3d = 128 4 364
                  kxmax kymax kzmax  = 4 4 4
Step Volume Temp Press KinEng PotEng TotEng Enthalpy E_vdwl E_coul E_pair E_bond E_angle E_dihed E_impro E_mol E_long E_tail Lx Ly Lz Xy Xz Yz Density
50395    46420.827    310.96812     396.3421     4216.636    1603.1474    5819.7834     6088.107   -1614.0373    3821.3929   -2612.1776    1446.1204     2131.037    638.16751            0    4215.3249   -4819.5331    -68.03192    35.939411    35.939411    35.939411            0            0            0   0.80264915
Averages over the last 51 of 102 rows, steps 101000 to 150395:
Volume Temp Press KinEng PotEng TotEng Enthalpy E_vdwl E_coul E_pair E_bond E_angle E_dihed E_impro E_mol E_long E_tail Lx Ly Lz Xy Xz Yz Density
48642.7 310.968 -33214.2 4216.64 2295.62 6512.25 -17090.2 -1733.14 3834.47 -2717.78 2244.19 2131.04 638.168 0 5013.4 -4819.11 -64.9297 36.5036 36.5036 36.5036 0 0 0 0.766049
Loop time of 273.573 on 48 procs for 100000 steps with 4550 atoms

# >>>>>>>>>  Equilibration run <<<<<<<<<<<<<<<<<<<<<<<<<<<<<<<<<<

fix             NVT_equib all nvt temp 310 310 100

print           "Step Density Temperature Pressure KinEng PotEng TotEng" file Properties_equib_acetone75p.txt
Step Density Temperature Pressure KinEng PotEng TotEng
fix             PRINT_equib all print 1000 "$(v_step) $(v_density) $(v_temp) $(v_press) $(v_pe) $(v_ke) $(v_etotal) $(v_enthalpy)" append Properties_equib_acetone75p.txt title ""
# The 'print' and fix print' commands as used above will create a file named 'Properties_equib.txt' which allows you to quickly make plots to test for equilibration

run             100000
Ewald initialization ...
  G vector (1/distance) = 0.168218
  estimated absolute RMS force accuracy = 0.0452731
  estimated relative force accuracy = 0.000136339
  KSpace vectors: actual max1d max3d = 128 4 364
                  kxmax kymax kzmax  = 4 4 4
Step Volume Temp Press KinEng PotEng TotEng Enthalpy E_vdwl E_coul E_pair E_bond E_angle E_dihed E_impro E_mol E_long E_tail Lx Ly Lz Xy Xz Yz Density
150395    49373.104    310.96812   -43575.339     4216.636    2727.0244    6943.6604   -24433.027   -1760.1891    3821.0021   -2740.1372    2697.9571     2131.037    638.16751            0    5467.1616   -4800.9502   -63.963935      36.6857      36.6857      36.6857            0            0            0   0.75465454
Loop time of 313.943 on 48 procs for 100000 steps with 4550 atoms

unfix           NVT_equib

# >>>>>  Production run <<<<<<<<<<<<<<<<<<<<<<

fix             NVT_prod all nvt temp 310 310 100

print           "Step Density Temperature Pressure KinEng PotEng TotEng" file Properties_prod_acetone75p.txt
Step Density Temperature Pressure KinEng PotEng TotEng
fix             PRINT_prod all print 1000 "$(v_step) $(v_density) $(v_temp) $(v_press) $(v_pe) $(v_ke) $(v_etotal) $(v_enthalpy)" append Properties_prod_acetone75p.txt title ""

dump            DUMP_file all custom 1000 acetone_octanol_75p.lammpstrj id type x y z xu yu zu vx vy vz mol

run             30000
Ewald initialization ...
  G vector (1/distance) = 0.168218
  estimated absolute RMS force accuracy = 0.0452731
  estimated relative force accuracy = 0.000136339
  KSpace vectors: actual max1d max3d = 128 4 364
                  kxmax kymax kzmax  = 4 4 4
Step Volume Temp Press KinEng PotEng TotEng Enthalpy E_vdwl E_coul E_pair E_bond E_angle E_dihed E_impro E_mol E_long E_tail Lx Ly Lz Xy Xz Yz Density
250395    49373.104    306.30023   -589.04842    4153.3407    1698.6572    5851.9979      5427.85    -1503.652    3851.0615    -2453.439     1441.061    2132.5949    578.44033            0    4152.0962   -4800.8485   -63.963935      36.6857      36.6857      36.6857            0            0            0   0.75465454
Loop time of 95.3709 on 48 procs for 30000 steps with 4550 atoms

write_data      restart.acetone_octanol_75p.final.data
Ewald initialization ...
  G vector (1/distance) = 0.168218
  estimated absolute RMS force accuracy = 0.0452731
  estimated relative force accuracy = 0.000136339
  KSpace vectors: actual max1d max3d = 128 4 364
                  kxmax kymax kzmax  = 4 4 4
