variable        infile index NoctanolN.data   # The name of the (edited) data file

#>>>>>> Simulation settings <<<<<<<

units		 real		#angstroms = length -
atom_style	 full		#How the atoms are defined in the input data file
boundary        p p p           #periodic box in x, y and z
pair_style	 lj/cut/coul/long 14.0    #'lj/cut/coul/long 12.0' for your ethanol simulation
pair_modify     tail yes            #Tail corrections
pair_modify     mix arithmetic      #Lorentz-Berthelot pair interactions between dissimilar atom

# The settings below are additional settings you must add for your ethanol simulation as already detailed in your example NPT LAMMPS script in the tutorial
# For your ethanol homework, change/edit the pair_style line as advised above and uncomment the extra settings below and you should be good to go for this section.

special_bonds   lj/coul 0.0 0.0 0.5
kspace_style    ewald 0.0001
bond_style      harmonic
angle_style     harmonic
dihedral_style  opls

# >>> Using the variable command in LAMMPS to define inputs/settings for the simulation <<<<<<

variable   simulationTemp  index 310     #Simulation temperature
variable   simulationPress equal 0.987	#Simulation pressure

# Output files frequencies
variable        dumpfreq   index 1000          #Output frequency of dump information to dump
variable        thermofreq index 1000          #Output frequency of property information to log
variable        printfreq  index 1000          #Output frequency of information to be printed
variable        restartfreq index 1000000      #Output frequency of restart files

# Simulation run times (equilibration and production)
variable        NVT_equib  index 100000       # Equilibration run length (in timesteps)
variable        NVT_prod   index 30000       # Simulation run length  (in timesteps)

# Defining properties to output
# The first expression after the 'variable' command is a user defined name for the variable, it can be anything
# The expression after the 'equal' keyword are LAMMPS special/reserved terms for those property

variable    step        equal step
variable    density     equal density
variable    temp        equal temp
variable    press       equal press
variable    ke          equal ke
variable    pe          equal pe
variable    etotal      equal etotal
variable    enthalpy    equal enthalpy

# >>>>>>>>>>> Reading data, Neighbor list settings, energy minimization, assigning initial velocities & specifying thermodynamic property output style to log files <<<<<<<<<

read_data	NoctanolN.data
  orthogonal box = (0 0 0) to (40 40 40)
  reading atoms ...
  6000 atoms
  scanning bonds ...
  scanning angles ...
  scanning dihedrals ...
  reading bonds ...
  5800 bonds
  reading angles ...
  10800 angles
  reading dihedrals ...
  15000 dihedrals
neighbor        1.0 bin
neigh_modify    delay 0 every 1 check yes page 1000000 one 20000
timestep        1.0

minimize        1e-4 1e-6 10000 100000        #Energy minimize before creating velocities
Ewald initialization ...
  G vector (1/distance) = 0.156941
  estimated absolute RMS force accuracy = 0.0340254
  estimated relative force accuracy = 0.000102467
  KSpace vectors: actual max1d max3d = 257 5 665
                  kxmax kymax kzmax  = 5 5 5
  update every 1 steps, delay 0 steps, check yes
Step Temp E_pair E_mol TotEng Press
0            0 7.4901084e+10    1113.1887 7.4901085e+10 3.2099095e+11
Loop time of 18.9925 on 48 procs for 601 steps with 6000 atoms

Minimization stats:
  Stopping criterion = energy tolerance
  Energy initial, next-to-last, final =
  Force two-norm initial, final = 3.20335e+12 24.9276
  Force max component initial, final = 1.63744e+12 4.73055
  Final line search alpha, max atom move = 0.00690042 0.0326428
  Iterations, force evaluations = 601 1155

velocity        all create  310 317879265 units box
velocity        all zero linear units box

# The 'velocity' command line above assigns initial velocities to the atoms in our data file, see the LAMMPS 'velocity' command
# The number '886874' is the seed number which helps LAMMPS to consistently assign the same randomized velocities for the same simulation with the same seed number
# Changing that seed number for your simulation of a given system is one easy way to run an 'independent' simulation of the same system as taught in class
# You will need to do this for your homework

thermo_style    custom step vol temp press ke pe etotal enthalpy evdwl ecoul epair ebond eangle edihed eimp emol elong etail lx ly lz xy xz yz density
thermo          1000

fix npt_density all npt temp 310 310 100 iso 0.987 0.987 1000

run 50000
Ewald initialization ...
  G vector (1/distance) = 0.156941
  estimated absolute RMS force accuracy = 0.0340254
  estimated relative force accuracy = 0.000102467
  KSpace vectors: actual max1d max3d = 257 5 665
                  kxmax kymax kzmax  = 5 5 5
Step Volume Temp Press KinEng PotEng TotEng Enthalpy E_vdwl E_coul E_pair E_bond E_angle E_dihed E_impro E_mol E_long E_tail Lx Ly Lz Xy Xz Yz Density
601        64000          310    2325.8525    5543.3826   -1989.4786     3553.904     5724.795   -1945.6753    13039.232   -2350.5545    66.509307    358.77231    -64.20577            0    361.07585   -13444.111   -49.047561           40           40           40            0            0            0   0.74858454
Averages over the last 26 of 52 rows, steps 26000 to 50601:
Volume Temp Press KinEng PotEng TotEng Enthalpy E_vdwl E_coul E_pair E_bond E_angle E_dihed E_impro E_mol E_long E_tail Lx Ly Lz Xy Xz Yz Density
56289.7 310.329 33.6942 5549.26 2515.13 8064.39 8091.47 -1859.64 13204.8 -2104.85 1901.52 2854.67 -136.209 0 4619.98 -13450 -55.768 38.3243 38.3243 38.3243 0 0 0 0.851154
Loop time of 290.123 on 48 procs for 50000 steps with 6000 atoms

unfix npt_density

fix reshape_box all deform 1 x final 0.0 37.4456 y final 0.0 37.4456 z final 0.0 37.4456 units box

run 100000
Ewald initialization ...
  G vector (1/distance) = 0.158022
  estimated absolute RMS force accuracy = 0.0335499
  estimated relative force accuracy = 0.000101034
  KSpace vectors: actual max1d max3d = 257 5 665
                  kxmax kymax kzmax  = 5 5 5
Step Volume Temp Press KinEng PotEng TotEng Enthalpy E_vdwl E_coul E_pair E_bond E_angle E_dihed E_impro E_mol E_long E_tail Lx Ly Lz Xy Xz Yz Density
50601    56002.882    311.24415   -1117.9246    5565.6305     2360.824    7926.4545    7013.3956   -1927.2589    13378.329   -2091.2545    1868.0238    2828.5066   -244.45192            0    4452.0785   -13542.325   -56.051471     38.25928     38.25928     38.25928            0            0            0   0.85548116
Averages over the last 51 of 102 rows, steps 101000 to 150601:
Volume Temp Press KinEng PotEng TotEng Enthalpy E_vdwl E_coul E_pair E_bond E_angle E_dihed E_impro E_mol E_long E_tail Lx Ly Lz Xy Xz Yz Density
53353.6 311.244 40978.4 5565.63 2964.94 8530.57 40352.7 -1640.36 13376.6 -1806.67 2187.55 2828.51 -244.452 0 4771.61 -13542.9 -58.84 37.6458 37.6458 37.6458 0 0 0 0.898041
Loop time of 478.201 on 48 procs for 100000 steps with 6000 atoms

# >>>>>>>>>  Equilibration run <<<<<<<<<<<<<<<<<<<<<<<<<<<<<<<<<<

fix             NVT_equib all nvt temp 310 310 100

print           "Step Density Temperature Pressure KinEng PotEng TotEng" file Properties_equib_NoctanolN.txt
Step Density Temperature Pressure KinEng PotEng TotEng
fix             PRINT_equib all print 1000 "$(v_step) $(v_density) $(v_temp) $(v_press) $(v_pe) $(v_ke) $(v_etotal) $(v_enthalpy)" append Properties_equib_NoctanolN.txt title ""
# The 'print' and fix print' commands as used above will create a file named 'Properties_equib.txt' which allows you to quickly make plots to test for equilibration

run             100000
Ewald initialization ...
  G vector (1/distance) = 0.158542
  estimated absolute RMS force accuracy = 0.0334255
  estimated relative force accuracy = 0.00010066
  KSpace vectors: actual max1d max3d = 257 5 665
                  kxmax kymax kzmax  = 5 5 5
Step Volume Temp Press KinEng PotEng TotEng Enthalpy E_vdwl E_coul E_pair E_bond E_angle E_dihed E_impro E_mol E_long E_tail Lx Ly Lz Xy Xz Yz Density
150601    52505.208    311.24415    55432.738    5565.6305    3469.0415     9034.672    51481.438   -1521.8671     13420.24   -1689.1294    2574.1162    2828.5066   -244.45192            0    5158.1709   -13587.502   -59.785382      37.4456      37.4456      37.4456            0            0            0   0.91246969
Loop time of 542.462 on 48 procs for 100000 steps with 6000 atoms

unfix           NVT_equib

# >>>>>  Production run <<<<<<<<<<<<<<<<<<<<<<

fix             NVT_prod all nvt temp 310 310 100

print           "Step Density Temperature Pressure KinEng PotEng TotEng" file Properties_prod_NoctanolN.txt
Step Density Temperature Pressure KinEng PotEng TotEng
fix             PRINT_prod all print 1000 "$(v_step) $(v_density) $(v_temp) $(v_press) $(v_pe) $(v_ke) $(v_etotal) $(v_enthalpy)" append Properties_prod_NoctanolN.txt title ""

dump            DUMP_file all custom 1000 NoctanolN.lammpstrj id type x y z xu yu zu vx vy vz mol

run             30000
Ewald initialization ...
  G vector (1/distance) = 0.158542
  estimated absolute RMS force accuracy = 0.0334255
  estimated relative force accuracy = 0.00010066
  KSpace vectors: actual max1d max3d = 257 5 665
                  kxmax kymax kzmax  = 5 5 5
Step Volume Temp Press KinEng PotEng TotEng Enthalpy E_vdwl E_coul E_pair E_bond E_angle E_dihed E_impro E_mol E_long E_tail Lx Ly Lz Xy Xz Yz Density
250601    52505.208    311.33534     2297.853    5567.2609     2023.352    7590.6129    9350.1585    -2010.987    13159.282   -2437.9767    1906.6444    2833.3015   -278.61711            0    4461.3287   -13586.272   -59.785382      37.4456      37.4456      37.4456            0            0            0   0.91246969
Loop time of 165.789 on 48 procs for 30000 steps with 6000 atoms

write_data      restart.NoctanolN.final.data
Ewald initialization ...
  G vector (1/distance) = 0.158542
  estimated absolute RMS force accuracy = 0.0334255
  estimated relative force accuracy = 0.00010066
  KSpace vectors: actual max1d max3d = 257 5 665
                  kxmax kymax kzmax  = 5 5 5
