variable        infile index OctaneO.data   # The name of the (edited) data file

#>>>>>> Simulation settings <<<<<<<

units		 real		#angstroms = length -
atom_style	 full		#How the atoms are defined in the input data file
boundary        p p p           #periodic box in x, y and z
pair_style	 lj/cut/coul/long 14.0    #'lj/cut/coul/long 12.0' for your ethanol simulation
pair_modify     tail yes            #Tail corrections
pair_modify     mix arithmetic      #Lorentz-Berthelot pair interactions between dissimilar atom

# The settings below are additional settings you must add for your ethanol simulation as already detailed in your example NPT LAMMPS script in the tutorial
# For your ethanol homework, change/edit the pair_style line as advised above and uncomment the extra settings below and you should be good to go for this section.

special_bonds   lj/coul 0.0 0.0 0.5
kspace_style    ewald 0.0001
bond_style      harmonic
angle_style     harmonic
dihedral_style  opls

# >>> Using the variable command in LAMMPS to define inputs/settings for the simulation <<<<<<

variable   simulationTemp  index 310     #Simulation temperature
variable   simulationPress equal 0.987	#Simulation pressure

# Output files frequencies
variable        dumpfreq   index 1000          #Output frequency of dump information to dump
variable        thermofreq index 1000          #Output frequency of property information to log
variable        printfreq  index 1000          #Output frequency of information to be printed
variable        restartfreq index 1000000      #Output frequency of restart files

# Simulation run times (equilibration and production)
variable        NVT_equib  index 100000       # Equilibration run length (in timesteps)
variable        NVT_prod   index 30000       # Simulation run length  (in timesteps)

# Defining properties to output
# The first expression after the 'variable' command is a user defined name for the variable, it can be anything
# The expression after the 'equal' keyword are LAMMPS special/reserved terms for those property

variable    step        equal step
variable    density     equal density
variable    temp        equal temp
variable    press       equal press
variable    ke          equal ke
variable    pe          equal pe
variable    etotal      equal etotal
variable    enthalpy    equal enthalpy

# >>>>>>>>>>> Reading data, Neighbor list settings, energy minimization, assigning initial velocities & specifying thermodynamic property output style to log files <<<<<<<<<

read_data	OctaneO.data
  orthogonal box = (0 0 0) to (40 40 40)
  reading atoms ...
  5000 atoms
  scanning bonds ...
  scanning angles ...
  scanning dihedrals ...
  reading bonds ...
  4800 bonds
  reading angles ...
  8800 angles
  reading dihedrals ...
  12000 dihedrals
neighbor        1.0 bin
neigh_modify    delay 0 every 1 check yes page 1000000 one 20000
timestep        1.0

minimize        1e-4 1e-6 10000 100000        #Energy minimize before creating velocities
Ewald initialization ...
  G vector (1/distance) = 0.150844
  estimated absolute RMS force accuracy = 0.0333368
  estimated relative force accuracy = 0.000100393
  KSpace vectors: actual max1d max3d = 257 5 665
                  kxmax kymax kzmax  = 5 5 5
  update every 1 steps, delay 0 steps, check yes
Step Temp E_pair E_mol TotEng Press
0            0    1037.8302    1400.6987    2438.5289   -9991.1315
Loop time of 6.66059 on 48 procs for 547 steps with 5000 atoms

Minimization stats:
  Stopping criterion = energy tolerance
  Energy initial, next-to-last, final =
  Force two-norm initial, final = 2564.4 25.3469
  Force max component initial, final = 362.557 3.21574
  Final line search alpha, max atom move = 0.00736633 0.0236882
  Iterations, force evaluations = 547 1088

velocity        all create  310 317879265 units box
velocity        all zero linear units box

# The 'velocity' command line above assigns initial velocities to the atoms in our data file, see the LAMMPS 'velocity' command
# The number '886874' is the seed number which helps LAMMPS to consistently assign the same randomized velocities for the same simulation with the same seed number
# Changing that seed number for your simulation of a given system is one easy way to run an 'independent' simulation of the same system as taught in class
# You will need to do this for your homework

thermo_style    custom step vol temp press ke pe etotal enthalpy evdwl ecoul epair ebond eangle edihed eimp emol elong etail lx ly lz xy xz yz density
thermo          1000

fix npt_density all npt temp 310 310 100 iso 0.987 0.987 1000

run 50000
Ewald initialization ...
  G vector (1/distance) = 0.150844
  estimated absolute RMS force accuracy = 0.0333368
  estimated relative force accuracy = 0.000100393
  KSpace vectors: actual max1d max3d = 257 5 665
                  kxmax kymax kzmax  = 5 5 5
Step Volume Temp Press KinEng PotEng TotEng Enthalpy E_vdwl E_coul E_pair E_bond E_angle E_dihed E_impro E_mol E_long E_tail Lx Ly Lz Xy Xz Yz Density
547        64000          310    2343.9301    4619.3315   -2592.6253    2026.7062    4214.4704   -1731.3594    6813.5803   -3080.3973    61.290489    163.76444    262.71704            0    487.77198   -8162.6182   -38.609762           40           40           40            0            0            0   0.68601778
Averages over the last 26 of 52 rows, steps 26000 to 50547:
Volume Temp Press KinEng PotEng TotEng Enthalpy E_vdwl E_coul E_pair E_bond E_angle E_dihed E_impro E_mol E_long E_tail Lx Ly Lz Xy Xz Yz Density
47623.4 309.702 124.747 4614.89 1130.95 5745.84 5833.64 -1738.22 6384.59 -3522.92 1598.66 2286.89 768.318 0 4653.87 -8169.28 -51.8886 36.247 36.247 36.247 0 0 0 0.921956
Loop time of 234.454 on 48 procs for 50000 steps with 5000 atoms

unfix npt_density

fix reshape_box all deform 1 x final 0.0 37.4456 y final 0.0 37.4456 z final 0.0 37.4456 units box

run 100000
Ewald initialization ...
  G vector (1/distance) = 0.153371
  estimated absolute RMS force accuracy = 0.0383795
  estimated relative force accuracy = 0.000115579
  KSpace vectors: actual max1d max3d = 128 4 364
                  kxmax kymax kzmax  = 4 4 4
Step Volume Temp Press KinEng PotEng TotEng Enthalpy E_vdwl E_coul E_pair E_bond E_angle E_dihed E_impro E_mol E_long E_tail Lx Ly Lz Xy Xz Yz Density
50547    47348.813    313.16072    328.62245    4666.4296    1206.0863    5872.5159    6099.4408   -1775.3278    6561.6396   -3518.2143    1621.4023    2331.0818    771.81642            0    4724.3005   -8304.5261   -52.187682    36.177318    36.177318    36.177318            0            0            0   0.92727009
Averages over the last 51 of 102 rows, steps 101000 to 150547:
Volume Temp Press KinEng PotEng TotEng Enthalpy E_vdwl E_coul E_pair E_bond E_angle E_dihed E_impro E_mol E_long E_tail Lx Ly Lz Xy Xz Yz Density
51209.9 313.161 -60891.5 4666.43 3276.36 7942.79 -37659.3 -2063.95 6603.8 -3764.15 3937.61 2331.08 771.816 0 7040.51 -8304.01 -48.2638 37.1342 37.1342 37.1342 0 0 0 0.857551
Loop time of 370.26 on 48 procs for 100000 steps with 5000 atoms

# >>>>>>>>>  Equilibration run <<<<<<<<<<<<<<<<<<<<<<<<<<<<<<<<<<

fix             NVT_equib all nvt temp 310 310 100

print           "Step Density Temperature Pressure KinEng PotEng TotEng" file Properties_equib_OctaneO.txt
Step Density Temperature Pressure KinEng PotEng TotEng
fix             PRINT_equib all print 1000 "$(v_step) $(v_density) $(v_temp) $(v_press) $(v_pe) $(v_ke) $(v_etotal) $(v_enthalpy)" append Properties_equib_OctaneO.txt title ""
# The 'print' and fix print' commands as used above will create a file named 'Properties_equib.txt' which allows you to quickly make plots to test for equilibration

run             100000
Ewald initialization ...
  G vector (1/distance) = 0.152509
  estimated absolute RMS force accuracy = 0.0413498
  estimated relative force accuracy = 0.000124524
  KSpace vectors: actual max1d max3d = 128 4 364
                  kxmax kymax kzmax  = 4 4 4
Step Volume Temp Press KinEng PotEng TotEng Enthalpy E_vdwl E_coul E_pair E_bond E_angle E_dihed E_impro E_mol E_long E_tail Lx Ly Lz Xy Xz Yz Density
150547    52505.208    313.16072   -79290.303    4666.4296     4618.882    9285.3116   -51430.017   -2117.1337    6570.7276   -3803.6834    5319.6671    2331.0818    771.81642            0    8422.5654   -8257.2773    -47.06247      37.4456      37.4456      37.4456            0            0            0   0.83620539
Loop time of 416.496 on 48 procs for 100000 steps with 5000 atoms

unfix           NVT_equib

# >>>>>  Production run <<<<<<<<<<<<<<<<<<<<<<

fix             NVT_prod all nvt temp 310 310 100

print           "Step Density Temperature Pressure KinEng PotEng TotEng" file Properties_prod_OctaneO.txt
Step Density Temperature Pressure KinEng PotEng TotEng
fix             PRINT_prod all print 1000 "$(v_step) $(v_density) $(v_temp) $(v_press) $(v_pe) $(v_ke) $(v_etotal) $(v_enthalpy)" append Properties_prod_OctaneO.txt title ""

dump            DUMP_file all custom 1000 OctaneO.lammpstrj id type x y z xu yu zu vx vy vz mol

run             30000
Ewald initialization ...
  G vector (1/distance) = 0.152509
  estimated absolute RMS force accuracy = 0.0413498
  estimated relative force accuracy = 0.000124524
  KSpace vectors: actual max1d max3d = 128 4 364
                  kxmax kymax kzmax  = 4 4 4
Step Volume Temp Press KinEng PotEng TotEng Enthalpy E_vdwl E_coul E_pair E_bond E_angle E_dihed E_impro E_mol E_long E_tail Lx Ly Lz Xy Xz Yz Density
250547    52505.208    315.87861   -2047.7092    4706.9291    1430.9271    6137.8562    4569.8544   -1516.7759    6511.9792    -3261.215    1681.7275    2236.0518    774.36268            0     4692.142   -8256.4183    -47.06247      37.4456      37.4456      37.4456            0            0            0   0.83620539
Loop time of 131.019 on 48 procs for 30000 steps with 5000 atoms

write_data      restart.OctaneO.final.data
Ewald initialization ...
  G vector (1/distance) = 0.152509
  estimated absolute RMS force accuracy = 0.0413498
  estimated relative force accuracy = 0.000124524
  KSpace vectors: actual max1d max3d = 128 4 364
                  kxmax kymax kzmax  = 4 4 4
