variable        infile index DCM.data   # The name of the (edited) data file

#>>>>>> Simulation settings <<<<<<<

units		 real		#angstroms = length -
atom_style	 full		#How the atoms are defined in the input data file
boundary        p p p           #periodic box in x, y and z
pair_style	 lj/cut/coul/long 14.0    #'lj/cut/coul/long
pair_modify     tail yes            #Tail corrections
pair_modify     mix arithmetic      #Lorentz-Berthelot pair interactions between dissimilar atom

special_bonds   lj/coul 0.0 0.0 0.5
kspace_style    ewald 0.0001
bond_style      harmonic
angle_style     harmonic
dihedral_style  opls

# inputs settings
variable   simulationTemp  index 310     #Simulation temperature
variable   simulationPress equal 0.987	 #Simulation pressure

# Output files frequencies
variable        dumpfreq   index 1000          #Output frequency of dump information to dump
variable        thermofreq index 1000          #Output frequency of property information to log
variable        printfreq  index 1000          #Output frequency of information to be printed
variable        restartfreq index 1000000      #Output frequency of restart files

# Simulation run times (equilibration and production)
variable        NVT_equib  index 100000       # Equilibration run length (in timesteps)
variable        NVT_prod   index 30000       # Simulation run length  (in timesteps)

# Output
variable    step        equal step
variable    density     equal density
variable    temp        equal temp
variable    press       equal press
variable    ke          equal ke
variable    pe          equal pe
variable    etotal      equal etotal
variable    enthalpy    equal enthalpy

# >>>>>>>>>>> Reading data, Neighbor list settings, energy minimization, assigning initial velocities & specifying thermodynamic property output style to log files <<<<<<<<<

read_data	DCM.data
  orthogonal box = (0 0 0) to (40 40 40)
  reading atoms ...
  1000 atoms
  scanning bonds ...
  scanning angles ...
  reading bonds ...
  800 bonds
  reading angles ...
  1200 angles
neighbor        1.0 bin
neigh_modify    delay 0 every 1 check yes page 1000000 one 20000
timestep        1.0

minimize        1e-4 1e-6 10000 100000        #Energy minimize before creating velocities
Ewald initialization ...
  G vector (1/distance) = 0.115285
  estimated absolute RMS force accuracy = 0.0337667
  estimated relative force accuracy = 0.000101687
  KSpace vectors: actual max1d max3d = 61 3 171
                  kxmax kymax kzmax  = 3 3 3
  update every 1 steps, delay 0 steps, check yes
Step Temp E_pair E_mol TotEng Press
0            0    5600.6418    124.83511     5725.477    26842.772
Loop time of 0.828006 on 48 procs for 262 steps with 1000 atoms

Minimization stats:
  Stopping criterion = energy tolerance
  Energy initial, next-to-last, final =
  Force two-norm initial, final = 6441.07 20.2299
  Force max component initial, final = 1290.43 3.07025
  Final line search alpha, max atom move = 0.0101591 0.031191
  Iterations, force evaluations = 262 504

velocity        all create  310 317879265 units box
velocity        all zero linear units box

# The 'velocity' command line above assigns initial velocities to the atoms in our data file, see the LAMMPS 'velocity' command
# The number '886874' is the seed number which helps LAMMPS to consistently assign the same randomized velocities for the same simulation with the same seed number
# Changing that seed number for your simulation of a given system is one easy way to run an 'independent' simulation of the same system as taught in class
# You will need to do this for your homework

thermo_style    custom step vol temp press ke pe etotal enthalpy evdwl ecoul epair ebond eangle edihed eimp emol elong etail lx ly lz xy xz yz density
thermo          1000

fix npt_density all npt temp 310 310 100 iso 0.987 0.987 1000

run 50000
Ewald initialization ...
  G vector (1/distance) = 0.115285
  estimated absolute RMS force accuracy = 0.0337667
  estimated relative force accuracy = 0.000101687
  KSpace vectors: actual max1d max3d = 61 3 171
                  kxmax kymax kzmax  = 3 3 3
Step Volume Temp Press KinEng PotEng TotEng Enthalpy E_vdwl E_coul E_pair E_bond E_angle E_dihed E_impro E_mol E_long E_tail Lx Ly Lz Xy Xz Yz Density
262        64000          310    917.15106    923.12706   -1168.2839   -245.15681    610.88847   -508.26483    719.79454   -1193.6044   0.24295626    25.077583            0            0     25.32054   -1405.1341   -6.8373222           40           40           40            0            0            0   0.44073336
Averages over the last 26 of 52 rows, steps 26000 to 50262:
Volume Temp Press KinEng PotEng TotEng Enthalpy E_vdwl E_coul E_pair E_bond E_angle E_dihed E_impro E_mol E_long E_tail Lx Ly Lz Xy Xz Yz Density
2.6261e+06 308.77 0.995167 919.466 532.019 1451.48 1484.63 -4.92044 263.325 -154.3 304.412 381.907 0 0 686.319 -412.704 -0.174122 137.35 137.35 137.35 0 0 0 0.0112239
Loop time of 61.9404 on 48 procs for 50000 steps with 1000 atoms

unfix npt_density

fix reshape_box all deform 1 x final 0.0 36.6857 y final 0.0 36.6857 z final 0.0 36.6857 units box

run 100000
Ewald initialization ...
  G vector (1/distance) = 0.0596969
  estimated absolute RMS force accuracy = 0.0373138
  estimated relative force accuracy = 0.000112369
  KSpace vectors: actual max1d max3d = 61 3 171
                  kxmax kymax kzmax  = 3 3 3
Step Volume Temp Press KinEng PotEng TotEng Enthalpy E_vdwl E_coul E_pair E_bond E_angle E_dihed E_impro E_mol E_long E_tail Lx Ly Lz Xy Xz Yz Density
50262    2898124.2    319.56868   0.40801619    951.62096    498.48908      1450.11    1467.3553   -3.6937943    146.86507   -156.40579    286.09684    368.79804            0            0    654.89487   -299.57707  -0.15099029    142.57356    142.57356    142.57356            0            0            0 0.0097328249
Averages over the last 51 of 102 rows, steps 101000 to 150262:
Volume Temp Press KinEng PotEng TotEng Enthalpy E_vdwl E_coul E_pair E_bond E_angle E_dihed E_impro E_mol E_long E_tail Lx Ly Lz Xy Xz Yz Density
288213 319.569 1.05254e+07 951.621 2.3866e+06 2.38756e+06 1.13979e+07 2.23228e+06 828.103 2.23143e+06 154801 368.798 0 0 155170 -1678.97 -2.71818 62.3915 62.3915 62.3915 0 0 0 0.175214
Loop time of 69.488 on 48 procs for 100000 steps with 1000 atoms

# >>>>>>>>>  Equilibration run <<<<<<<<<<<<<<<<<<<<<<<<<<<<<<<<<<

fix             NVT_equib all nvt temp 310 310 100

print           "Step Density Temperature Pressure KinEng PotEng TotEng" file Properties_equib_DCM.txt
Step Density Temperature Pressure KinEng PotEng TotEng
fix             PRINT_equib all print 1000 "$(v_step) $(v_density) $(v_temp) $(v_press) $(v_pe) $(v_ke) $(v_etotal) $(v_enthalpy)" append Properties_equib_DCM.txt title ""
# The 'print' and fix print' commands as used above will create a file named 'Properties_equib.txt' which allows you to quickly make plots to test for equilibration

run             100000
Ewald initialization ...
  G vector (1/distance) = 0.118121
  estimated absolute RMS force accuracy = 0.0334388
  estimated relative force accuracy = 0.0001007
  KSpace vectors: actual max1d max3d = 61 3 171
                  kxmax kymax kzmax  = 3 3 3
Step Volume Temp Press KinEng PotEng TotEng Enthalpy E_vdwl E_coul E_pair E_bond E_angle E_dihed E_impro E_mol E_long E_tail Lx Ly Lz Xy Xz Yz Density
150262    49373.104    319.56868 1.4461347e+08    951.62096     26267141     26268092 1.303979e+08     26006937    1127.3943     26006412    260360.06    368.79804            0            0    260728.86   -1652.5598   -8.8628947      36.6857      36.6857      36.6857            0            0            0   0.57130164
ERROR on proc 0: Bond atoms 563 561 missing on proc 0 at step 150263 (src/ntopo_bond_all.cpp:63)
