variable        infile index DCM_octanol_75p.data   # The name of the (edited) data file

#>>>>>> Simulation settings <<<<<<<

units		 real		#angstroms = length -
atom_style	 full		#How the atoms are defined in the input data file
boundary        p p p           #periodic box in x, y and z
pair_style	 lj/cut/coul/long 12.0    #'lj/cut/coul/long
pair_modify     tail yes            #Tail corrections
pair_modify     mix arithmetic      #Lorentz-Berthelot pair interactions between dissimilar atom

special_bonds   lj/coul 0.0 0.0 0.5
kspace_style    ewald 0.0001
bond_style      harmonic
angle_style     harmonic
dihedral_style  opls

# inputs settings
variable   simulationTemp  index 310     #Simulation temperature
variable   simulationPress equal 0.987	 #Simulation pressure

# Output files frequencies
variable        dumpfreq   index 1000          #Output frequency of dump information to dump
variable        thermofreq index 1000          #Output frequency of property information to log
variable        printfreq  index 1000          #Output frequency of information to be printed
variable        restartfreq index 1000000      #Output frequency of restart files

# Simulation run times (equilibration and production)
variable        NVT_equib  index 100000       # Equilibration run length (in timesteps)
variable        NVT_prod   index 30000       # Simulation run length  (in timesteps)

# Output
variable    step        equal step
variable    density     equal density
variable    temp        equal temp
variable    press       equal press
variable    ke          equal ke
variable    pe          equal pe
variable    etotal      equal etotal
variable    enthalpy    equal enthalpy

# >>>>>>>>>>> Reading data, Neighbor list settings, energy minimization, assigning initial velocities & specifying thermodynamic property output style to log files <<<<<<<<<

read_data	DCM_octanol_75p.data
  orthogonal box = (0 0 0) to (40 40 40)
  reading atoms ...
  2100 atoms
  scanning bonds ...
  scanning angles ...
  scanning dihedrals ...
  reading bonds ...
  1900 bonds
  reading angles ...
  3350 angles
  reading dihedrals ...
  3300 dihedrals
neighbor        1.0 bin
neigh_modify    delay 0 every 1 check yes page 1000000 one 20000
timestep        1.0

minimize        1e-4 1e-6 10000 100000        #Energy minimize before creating velocities
Ewald initialization ...
  G vector (1/distance) = 0.152552
  estimated absolute RMS force accuracy = 0.0356093
  estimated relative force accuracy = 0.000107236
  KSpace vectors: actual max1d max3d = 128 4 364
                  kxmax kymax kzmax  = 4 4 4
  update every 1 steps, delay 0 steps, check yes
Step Temp E_pair E_mol TotEng Press
0            0    6998.7218    518.88232    7517.6042    30550.335
Loop time of 13.684 on 48 procs for 396 steps with 2100 atoms

Minimization stats:
  Stopping criterion = energy tolerance
  Energy initial, next-to-last, final =
  Force two-norm initial, final = 6658.71 20.36
  Force max component initial, final = 1635.62 2.83291
  Final line search alpha, max atom move = 0.00525173 0.0148777
  Iterations, force evaluations = 396 776

velocity        all create  310 317879265 units box
velocity        all zero linear units box

# The 'velocity' command line above assigns initial velocities to the atoms in our data file, see the LAMMPS 'velocity' command
# The number '886874' is the seed number which helps LAMMPS to consistently assign the same randomized velocities for the same simulation with the same seed number
# Changing that seed number for your simulation of a given system is one easy way to run an 'independent' simulation of the same system as taught in class
# You will need to do this for your homework

thermo_style    custom step vol temp press ke pe etotal enthalpy evdwl ecoul epair ebond eangle edihed eimp emol elong etail lx ly lz xy xz yz density
thermo          1000

fix npt_density all npt temp 310 310 100 iso 0.987 0.987 1000

run 50000
Ewald initialization ...
  G vector (1/distance) = 0.152552
  estimated absolute RMS force accuracy = 0.0356093
  estimated relative force accuracy = 0.000107236
  KSpace vectors: actual max1d max3d = 128 4 364
                  kxmax kymax kzmax  = 4 4 4
Step Volume Temp Press KinEng PotEng TotEng Enthalpy E_vdwl E_coul E_pair E_bond E_angle E_dihed E_impro E_mol E_long E_tail Lx Ly Lz Xy Xz Yz Density
396        64000          310    973.88357    1939.5833   -1288.5825    651.00084    1559.9988   -1018.5488    1406.6996   -1519.2652    8.4275223     75.48309    146.77214            0    230.68275   -1907.4159   -20.510966           40           40           40            0            0            0   0.49949522
Averages over the last 26 of 52 rows, steps 26000 to 50396:
Volume Temp Press KinEng PotEng TotEng Enthalpy E_vdwl E_coul E_pair E_bond E_angle E_dihed E_impro E_mol E_long E_tail Lx Ly Lz Xy Xz Yz Density
39730.1 308.852 -19.4045 1932.4 188.376 2120.78 2116.07 -886.997 1529.44 -1496.45 602.724 873.949 208.152 0 1684.82 -2138.89 -33.1506 34.1096 34.1096 34.1096 0 0 0 0.807302
Loop time of 119.776 on 48 procs for 50000 steps with 2100 atoms

unfix npt_density

fix reshape_box all deform 1 x final 0.0 36.6857 y final 0.0 36.6857 z final 0.0 36.6857 units box

run 100000
Ewald initialization ...
  G vector (1/distance) = 0.158357
  estimated absolute RMS force accuracy = 0.0334735
  estimated relative force accuracy = 0.000100804
  KSpace vectors: actual max1d max3d = 128 4 364
                  kxmax kymax kzmax  = 4 4 4
Step Volume Temp Press KinEng PotEng TotEng Enthalpy E_vdwl E_coul E_pair E_bond E_angle E_dihed E_impro E_mol E_long E_tail Lx Ly Lz Xy Xz Yz Density
50396    38056.644    307.29243   -205.62997    1922.6428     120.2747    2042.9175    1928.7894   -933.00164    1572.5263   -1546.2535    607.59698    856.76204    202.16921            0    1666.5282   -2185.7782   -34.493368    33.636451    33.636451    33.636451            0            0            0   0.84000296
Averages over the last 51 of 102 rows, steps 101000 to 150396:
Volume Temp Press KinEng PotEng TotEng Enthalpy E_vdwl E_coul E_pair E_bond E_angle E_dihed E_impro E_mol E_long E_tail Lx Ly Lz Xy Xz Yz Density
46450.4 307.292 -72636.1 1922.64 5435.24 7357.89 -42155.2 -894.497 1526.06 -1464.79 5841.1 856.762 202.169 0 6900.03 -2096.35 -28.2999 35.9414 35.9414 35.9414 0 0 0 0.689176
Loop time of 161.156 on 48 procs for 100000 steps with 2100 atoms

# >>>>>>>>>  Equilibration run <<<<<<<<<<<<<<<<<<<<<<<<<<<<<<<<<<

fix             NVT_equib all nvt temp 310 310 100

print           "Step Density Temperature Pressure KinEng PotEng TotEng" file Properties_equib_DCM75p.txt
Step Density Temperature Pressure KinEng PotEng TotEng
fix             PRINT_equib all print 1000 "$(v_step) $(v_density) $(v_temp) $(v_press) $(v_pe) $(v_ke) $(v_etotal) $(v_enthalpy)" append Properties_equib_DCM75p.txt title ""
# The 'print' and fix print' commands as used above will create a file named 'Properties_equib.txt' which allows you to quickly make plots to test for equilibration

run             100000
Ewald initialization ...
  G vector (1/distance) = 0.155477
  estimated absolute RMS force accuracy = 0.0340968
  estimated relative force accuracy = 0.000102681
  KSpace vectors: actual max1d max3d = 128 4 364
                  kxmax kymax kzmax  = 4 4 4
Step Volume Temp Press KinEng PotEng TotEng Enthalpy E_vdwl E_coul E_pair E_bond E_angle E_dihed E_impro E_mol E_long E_tail Lx Ly Lz Xy Xz Yz Density
150396    49373.104    307.29243   -92169.828    1922.6428    8916.7336    10839.376   -55528.068   -849.23341    1496.4575   -1408.0597     9265.862    856.76204    202.16921            0    10324.793   -2055.2838   -26.587387      36.6857      36.6857      36.6857            0            0            0   0.64747183
Loop time of 205.257 on 48 procs for 100000 steps with 2100 atoms

unfix           NVT_equib

# >>>>>  Production run <<<<<<<<<<<<<<<<<<<<<<

fix             NVT_prod all nvt temp 310 310 100

print           "Step Density Temperature Pressure KinEng PotEng TotEng" file Properties_prod_DCM75p.txt
Step Density Temperature Pressure KinEng PotEng TotEng
fix             PRINT_prod all print 1000 "$(v_step) $(v_density) $(v_temp) $(v_press) $(v_pe) $(v_ke) $(v_etotal) $(v_enthalpy)" append Properties_prod_DCM75p.txt title ""

dump            DUMP_file all custom 1000 DCM_octanol_75p.lammpstrj id type x y z xu yu zu vx vy vz mol

run             30000
Ewald initialization ...
  G vector (1/distance) = 0.155477
  estimated absolute RMS force accuracy = 0.0340968
  estimated relative force accuracy = 0.000102681
  KSpace vectors: actual max1d max3d = 128 4 364
                  kxmax kymax kzmax  = 4 4 4
Step Volume Temp Press KinEng PotEng TotEng Enthalpy E_vdwl E_coul E_pair E_bond E_angle E_dihed E_impro E_mol E_long E_tail Lx Ly Lz Xy Xz Yz Density
250396    49373.104    311.70696    243.09184    1950.2633    299.03654    2249.2998    2424.3396   -777.28557    1433.9291   -1389.2323    631.50063     870.4278    186.34039            0    1688.2688   -2045.8758   -26.587387      36.6857      36.6857      36.6857            0            0            0   0.64747183
Loop time of 63.0392 on 48 procs for 30000 steps with 2100 atoms

write_data      restart.DCM_octanol_75p.final.data
Ewald initialization ...
  G vector (1/distance) = 0.155477
  estimated absolute RMS force accuracy = 0.0340968
  estimated relative force accuracy = 0.000102681
  KSpace vectors: actual max1d max3d = 128 4 364
                  kxmax kymax kzmax  = 4 4 4
