variable        infile index DCM_octanol_25p.data   # The name of the (edited) data file

#>>>>>> Simulation settings <<<<<<<

units		 real		#angstroms = length -
atom_style	 full		#How the atoms are defined in the input data file
boundary        p p p           #periodic box in x, y and z
pair_style	 lj/cut/coul/long 12.0    #'lj/cut/coul/long
pair_modify     tail yes            #Tail corrections
pair_modify     mix arithmetic      #Lorentz-Berthelot pair interactions between dissimilar atom

special_bonds   lj/coul 0.0 0.0 0.5
kspace_style    ewald 0.0001
bond_style      harmonic
angle_style     harmonic
dihedral_style  opls

# inputs settings
variable   simulationTemp  index 310     #Simulation temperature
variable   simulationPress equal 0.987	 #Simulation pressure

# Output files frequencies
variable        dumpfreq   index 1000          #Output frequency of dump information to dump
variable        thermofreq index 1000          #Output frequency of property information to log
variable        printfreq  index 1000          #Output frequency of information to be printed
variable        restartfreq index 1000000      #Output frequency of restart files

# Simulation run times (equilibration and production)
variable        NVT_equib  index 100000       # Equilibration run length (in timesteps)
variable        NVT_prod   index 30000       # Simulation run length  (in timesteps)

# Output
variable    step        equal step
variable    density     equal density
variable    temp        equal temp
variable    press       equal press
variable    ke          equal ke
variable    pe          equal pe
variable    etotal      equal etotal
variable    enthalpy    equal enthalpy

# >>>>>>>>>>> Reading data, Neighbor list settings, energy minimization, assigning initial velocities & specifying thermodynamic property output style to log files <<<<<<<<<

read_data	DCM_octanol_25p.data
  orthogonal box = (0 0 0) to (40 40 40)
  reading atoms ...
  4300 atoms
  scanning bonds ...
  scanning angles ...
  scanning dihedrals ...
  reading bonds ...
  4100 bonds
  reading angles ...
  7650 angles
  reading dihedrals ...
  9900 dihedrals
neighbor        1.0 bin
neigh_modify    delay 0 every 1 check yes page 1000000 one 20000
timestep        1.0

minimize        1e-4 1e-6 10000 100000        #Energy minimize before creating velocities
Ewald initialization ...
  G vector (1/distance) = 0.162932
  estimated absolute RMS force accuracy = 0.033459
  estimated relative force accuracy = 0.000100761
  KSpace vectors: actual max1d max3d = 257 5 665
                  kxmax kymax kzmax  = 5 5 5
  update every 1 steps, delay 0 steps, check yes
Step Temp E_pair E_mol TotEng Press
0            0    3317.9801    1306.9774    4624.9575    6428.3004
Loop time of 4.26747 on 48 procs for 486 steps with 4300 atoms

Minimization stats:
  Stopping criterion = linesearch alpha is zero
  Energy initial, next-to-last, final =
  Force two-norm initial, final = 3612.74 22.8387
  Force max component initial, final = 1002.72 2.64652
  Final line search alpha, max atom move = 2.21543e-11 5.86318e-11
  Iterations, force evaluations = 486 1013

velocity        all create  310 317879265 units box
velocity        all zero linear units box

# The 'velocity' command line above assigns initial velocities to the atoms in our data file, see the LAMMPS 'velocity' command
# The number '886874' is the seed number which helps LAMMPS to consistently assign the same randomized velocities for the same simulation with the same seed number
# Changing that seed number for your simulation of a given system is one easy way to run an 'independent' simulation of the same system as taught in class
# You will need to do this for your homework

thermo_style    custom step vol temp press ke pe etotal enthalpy evdwl ecoul epair ebond eangle edihed eimp emol elong etail lx ly lz xy xz yz density
thermo          1000

fix npt_density all npt temp 310 310 100 iso 0.987 0.987 1000

run 50000
Ewald initialization ...
  G vector (1/distance) = 0.162932
  estimated absolute RMS force accuracy = 0.033459
  estimated relative force accuracy = 0.000100761
  KSpace vectors: actual max1d max3d = 257 5 665
                  kxmax kymax kzmax  = 5 5 5
Step Volume Temp Press KinEng PotEng TotEng Enthalpy E_vdwl E_coul E_pair E_bond E_angle E_dihed E_impro E_mol E_long E_tail Lx Ly Lz Xy Xz Yz Density
486        64000          310    2062.0997    3972.4957   -1402.6784    2569.8174    4494.5284   -1793.5902    3748.2055   -2057.7092    28.574193    181.55945     444.8972            0    655.03085   -4012.3245   -48.842573           40           40           40            0            0            0   0.61701893
Averages over the last 26 of 52 rows, steps 26000 to 50486:
Volume Temp Press KinEng PotEng TotEng Enthalpy E_vdwl E_coul E_pair E_bond E_angle E_dihed E_impro E_mol E_long E_tail Lx Ly Lz Xy Xz Yz Density
45960.4 309.711 10.3953 3968.79 1736.75 5705.53 5711.89 -1617.76 3483.02 -2176 1326.31 1970.4 616.036 0 3912.75 -4041.26 -68.016 35.82 35.82 35.82 0 0 0 0.859233
Loop time of 169.444 on 48 procs for 50000 steps with 4300 atoms

unfix npt_density

fix reshape_box all deform 1 x final 0.0 36.6857 y final 0.0 36.6857 z final 0.0 36.6857 units box

run 100000
Ewald initialization ...
  G vector (1/distance) = 0.166537
  estimated absolute RMS force accuracy = 0.0387906
  estimated relative force accuracy = 0.000116817
  KSpace vectors: actual max1d max3d = 128 4 364
                  kxmax kymax kzmax  = 4 4 4
Step Volume Temp Press KinEng PotEng TotEng Enthalpy E_vdwl E_coul E_pair E_bond E_angle E_dihed E_impro E_mol E_long E_tail Lx Ly Lz Xy Xz Yz Density
50486    45458.996    309.40286    318.78171    3964.8437    1733.9476    5698.7914     5910.135   -1637.1884    3551.8388   -2212.9701    1350.5406    1959.7305    636.64663            0    3946.9177   -4127.6205   -68.763609    35.689458    35.689458    35.689458            0            0            0   0.86867759
Averages over the last 51 of 102 rows, steps 101000 to 150486:
Volume Temp Press KinEng PotEng TotEng Enthalpy E_vdwl E_coul E_pair E_bond E_angle E_dihed E_impro E_mol E_long E_tail Lx Ly Lz Xy Xz Yz Density
48396.7 309.403 -42724.5 3964.84 2868.57 6833.42 -23389.9 -1782.25 3559.68 -2347.21 2619.4 1959.73 636.647 0 5215.78 -4124.63 -64.5991 36.4417 36.4417 36.4417 0 0 0 0.816068
Loop time of 255.463 on 48 procs for 100000 steps with 4300 atoms

# >>>>>>>>>  Equilibration run <<<<<<<<<<<<<<<<<<<<<<<<<<<<<<<<<<

fix             NVT_equib all nvt temp 310 310 100

print           "Step Density Temperature Pressure KinEng PotEng TotEng" file Properties_equib_DCM25p.txt
Step Density Temperature Pressure KinEng PotEng TotEng
fix             PRINT_equib all print 1000 "$(v_step) $(v_density) $(v_temp) $(v_press) $(v_pe) $(v_ke) $(v_etotal) $(v_enthalpy)" append Properties_equib_DCM25p.txt title ""
# The 'print' and fix print' commands as used above will create a file named 'Properties_equib.txt' which allows you to quickly make plots to test for equilibration

run             100000
Ewald initialization ...
  G vector (1/distance) = 0.165674
  estimated absolute RMS force accuracy = 0.0407329
  estimated relative force accuracy = 0.000122666
  KSpace vectors: actual max1d max3d = 128 4 364
                  kxmax kymax kzmax  = 4 4 4
Step Volume Temp Press KinEng PotEng TotEng Enthalpy E_vdwl E_coul E_pair E_bond E_angle E_dihed E_impro E_mol E_long E_tail Lx Ly Lz Xy Xz Yz Density
150486    49373.104    309.40286   -55845.628    3964.8437    3592.0119    7556.8557   -32655.128     -1809.97    3541.9545   -2371.0593    3366.6941    1959.7305    636.64663            0    5963.0713   -4103.0438   -63.312298      36.6857      36.6857      36.6857            0            0            0   0.79981221
Loop time of 296.098 on 48 procs for 100000 steps with 4300 atoms

unfix           NVT_equib

# >>>>>  Production run <<<<<<<<<<<<<<<<<<<<<<

fix             NVT_prod all nvt temp 310 310 100

print           "Step Density Temperature Pressure KinEng PotEng TotEng" file Properties_prod_DCM25p.txt
Step Density Temperature Pressure KinEng PotEng TotEng
fix             PRINT_prod all print 1000 "$(v_step) $(v_density) $(v_temp) $(v_press) $(v_pe) $(v_ke) $(v_etotal) $(v_enthalpy)" append Properties_prod_DCM25p.txt title ""

dump            DUMP_file all custom 1000 DCM_octanol_25p.lammpstrj id type x y z xu yu zu vx vy vz mol

run             30000
Ewald initialization ...
  G vector (1/distance) = 0.165674
  estimated absolute RMS force accuracy = 0.0407329
  estimated relative force accuracy = 0.000122666
  KSpace vectors: actual max1d max3d = 128 4 364
                  kxmax kymax kzmax  = 4 4 4
Step Volume Temp Press KinEng PotEng TotEng Enthalpy E_vdwl E_coul E_pair E_bond E_angle E_dihed E_impro E_mol E_long E_tail Lx Ly Lz Xy Xz Yz Density
250486    49373.104    307.81237   -897.95311    3944.4624    1895.9141    5840.3764    5193.7998    -1442.616    3536.3619   -2010.8991     1350.967    1964.5801      591.266            0    3906.8131   -4104.6449   -63.312298      36.6857      36.6857      36.6857            0            0            0   0.79981221
Loop time of 88.9747 on 48 procs for 30000 steps with 4300 atoms

write_data      restart.DCM_octanol_25p.final.data
Ewald initialization ...
  G vector (1/distance) = 0.165674
  estimated absolute RMS force accuracy = 0.0407329
  estimated relative force accuracy = 0.000122666
  KSpace vectors: actual max1d max3d = 128 4 364
                  kxmax kymax kzmax  = 4 4 4
