variable        infile index diEther.data   # The name of the (edited) data file

#>>>>>> Simulation settings <<<<<<<

units		 real		#angstroms = length -
atom_style	 full		#How the atoms are defined in the input data file
boundary        p p p           #periodic box in x, y and z
pair_style	 lj/cut/coul/long 14.0    #'lj/cut/coul/long
pair_modify     tail yes            #Tail corrections
pair_modify     mix arithmetic      #Lorentz-Berthelot pair interactions between dissimilar atom

special_bonds   lj/coul 0.0 0.0 0.5
kspace_style    ewald 0.0001
bond_style      harmonic
angle_style     harmonic
dihedral_style  opls

# inputs settings
variable   simulationTemp  index 310     #Simulation temperature
variable   simulationPress equal 0.987	 #Simulation pressure

# Output files frequencies
variable        dumpfreq   index 1000          #Output frequency of dump information to dump
variable        thermofreq index 1000          #Output frequency of property information to log
variable        printfreq  index 1000          #Output frequency of information to be printed
variable        restartfreq index 1000000      #Output frequency of restart files

# Simulation run times (equilibration and production)
variable        NVT_equib  index 100000       # Equilibration run length (in timesteps)
variable        NVT_prod   index 30000       # Simulation run length  (in timesteps)

# Output
variable    step        equal step
variable    density     equal density
variable    temp        equal temp
variable    press       equal press
variable    ke          equal ke
variable    pe          equal pe
variable    etotal      equal etotal
variable    enthalpy    equal enthalpy

# >>>>>>>>>>> Reading data, Neighbor list settings, energy minimization, assigning initial velocities & specifying thermodynamic property output style to log files <<<<<<<<<

read_data	diEther.data
  orthogonal box = (0 0 0) to (40 40 40)
  reading atoms ...
  3000 atoms
  scanning bonds ...
  scanning angles ...
  scanning dihedrals ...
  reading bonds ...
  2800 bonds
  reading angles ...
  5000 angles
  reading dihedrals ...
  4800 dihedrals
neighbor        1.0 bin
neigh_modify    delay 0 every 1 check yes page 1000000 one 20000
timestep        1.0

minimize        1e-4 1e-6 10000 100000        #Energy minimize before creating velocities
Ewald initialization ...
  G vector (1/distance) = 0.125867
  estimated absolute RMS force accuracy = 0.0396215
  estimated relative force accuracy = 0.000119319
  KSpace vectors: actual max1d max3d = 61 3 171
                  kxmax kymax kzmax  = 3 3 3
  update every 1 steps, delay 0 steps, check yes
Step Temp E_pair E_mol TotEng Press
0            0   -710.98631    969.41914    258.43284   -6555.5081
Loop time of 4.54654 on 48 procs for 532 steps with 3000 atoms

Minimization stats:
  Stopping criterion = energy tolerance
  Energy initial, next-to-last, final =
  Force two-norm initial, final = 994.114 24.0064
  Force max component initial, final = 126.53 5.60947
  Final line search alpha, max atom move = 0.00957171 0.0536922
  Iterations, force evaluations = 532 1063

velocity        all create  310 317879265 units box
velocity        all zero linear units box

# The 'velocity' command line above assigns initial velocities to the atoms in our data file, see the LAMMPS 'velocity' command
# The number '886874' is the seed number which helps LAMMPS to consistently assign the same randomized velocities for the same simulation with the same seed number
# Changing that seed number for your simulation of a given system is one easy way to run an 'independent' simulation of the same system as taught in class
# You will need to do this for your homework

thermo_style    custom step vol temp press ke pe etotal enthalpy evdwl ecoul epair ebond eangle edihed eimp emol elong etail lx ly lz xy xz yz density
thermo          1000

fix npt_density all npt temp 310 310 100 iso 0.987 0.987 1000

run 50000
Ewald initialization ...
  G vector (1/distance) = 0.125867
  estimated absolute RMS force accuracy = 0.0396215
  estimated relative force accuracy = 0.000119319
  KSpace vectors: actual max1d max3d = 61 3 171
                  kxmax kymax kzmax  = 3 3 3
Step Volume Temp Press KinEng PotEng TotEng Enthalpy E_vdwl E_coul E_pair E_bond E_angle E_dihed E_impro E_mol E_long E_tail Lx Ly Lz Xy Xz Yz Density
532        64000          310    1779.9398    2771.2293   -1355.0835    1416.1458     3077.496   -1082.2801    543.24918   -1898.7584    21.325505    236.39382    285.95553            0    543.67486   -1359.7274   -12.745629           40           40           40            0            0            0   0.38463281
Averages over the last 26 of 52 rows, steps 26000 to 50532:
Volume Temp Press KinEng PotEng TotEng Enthalpy E_vdwl E_coul E_pair E_bond E_angle E_dihed E_impro E_mol E_long E_tail Lx Ly Lz Xy Xz Yz Density
35509.4 310.576 -252.334 2776.38 706.417 3482.8 3352.13 -990.38 511.336 -1840.32 896.368 1338.86 311.509 0 2546.74 -1361.27 -22.976 32.8679 32.8679 32.8679 0 0 0 0.693361
Loop time of 157.571 on 48 procs for 50000 steps with 3000 atoms

unfix npt_density

fix reshape_box all deform 1 x final 0.0 36.6857 y final 0.0 36.6857 z final 0.0 36.6857 units box

run 100000
Ewald initialization ...
  G vector (1/distance) = 0.131841
  estimated absolute RMS force accuracy = 0.0341018
  estimated relative force accuracy = 0.000102697
  KSpace vectors: actual max1d max3d = 61 3 171
                  kxmax kymax kzmax  = 3 3 3
Step Volume Temp Press KinEng PotEng TotEng Enthalpy E_vdwl E_coul E_pair E_bond E_angle E_dihed E_impro E_mol E_long E_tail Lx Ly Lz Xy Xz Yz Density
50532    35002.635    310.09438    617.25745     2772.073    629.21815    3401.2912    3716.3872   -1021.3132    571.57242   -1876.0514    872.22842    1324.7405    308.30062            0    2505.2695   -1426.3106   -23.304539    32.711484    32.711484    32.711484            0            0            0   0.70327562
Averages over the last 51 of 102 rows, steps 101000 to 150532:
Volume Temp Press KinEng PotEng TotEng Enthalpy E_vdwl E_coul E_pair E_bond E_angle E_dihed E_impro E_mol E_long E_tail Lx Ly Lz Xy Xz Yz Density
45575.6 310.094 -134639 2772.07 12907.9 15680 -74516.7 -988.749 642.15 -1772.37 13047.3 1324.74 308.301 0 14680.3 -1425.77 -17.9414 35.7104 35.7104 35.7104 0 0 0 0.541428
Loop time of 228.114 on 48 procs for 100000 steps with 3000 atoms

# >>>>>>>>>  Equilibration run <<<<<<<<<<<<<<<<<<<<<<<<<<<<<<<<<<

fix             NVT_equib all nvt temp 310 310 100

print           "Step Density Temperature Pressure KinEng PotEng TotEng" file Properties_equib_diEther.txt
Step Density Temperature Pressure KinEng PotEng TotEng
fix             PRINT_equib all print 1000 "$(v_step) $(v_density) $(v_temp) $(v_press) $(v_pe) $(v_ke) $(v_etotal) $(v_enthalpy)" append Properties_equib_diEther.txt title ""
# The 'print' and fix print' commands as used above will create a file named 'Properties_equib.txt' which allows you to quickly make plots to test for equilibration

run             100000
Ewald initialization ...
  G vector (1/distance) = 0.12847
  estimated absolute RMS force accuracy = 0.0363016
  estimated relative force accuracy = 0.000109321
  KSpace vectors: actual max1d max3d = 61 3 171
                  kxmax kymax kzmax  = 3 3 3
Step Volume Temp Press KinEng PotEng TotEng Enthalpy E_vdwl E_coul E_pair E_bond E_angle E_dihed E_impro E_mol E_long E_tail Lx Ly Lz Xy Xz Yz Density
150532    49373.104    310.09438   -169403.09     2772.073    21185.906    23957.979   -98021.745   -914.95368     628.4726   -1675.7897    21228.654    1324.7405    308.30062            0    22861.695   -1389.3086   -16.521551      36.6857      36.6857      36.6857            0            0            0   0.49858117
Loop time of 281.368 on 48 procs for 100000 steps with 3000 atoms

unfix           NVT_equib

# >>>>>  Production run <<<<<<<<<<<<<<<<<<<<<<

fix             NVT_prod all nvt temp 310 310 100

print           "Step Density Temperature Pressure KinEng PotEng TotEng" file Properties_prod_diEther.txt
Step Density Temperature Pressure KinEng PotEng TotEng
fix             PRINT_prod all print 1000 "$(v_step) $(v_density) $(v_temp) $(v_press) $(v_pe) $(v_ke) $(v_etotal) $(v_enthalpy)" append Properties_prod_diEther.txt title ""

dump            DUMP_file all custom 1000 diEther.lammpstrj id type x y z xu yu zu vx vy vz mol

run             30000
Ewald initialization ...
  G vector (1/distance) = 0.12847
  estimated absolute RMS force accuracy = 0.0363016
  estimated relative force accuracy = 0.000109321
  KSpace vectors: actual max1d max3d = 61 3 171
                  kxmax kymax kzmax  = 3 3 3
Step Volume Temp Press KinEng PotEng TotEng Enthalpy E_vdwl E_coul E_pair E_bond E_angle E_dihed E_impro E_mol E_long E_tail Lx Ly Lz Xy Xz Yz Density
250532    49373.104    306.16912   -678.64695    2736.9834    1048.4206    3785.4039    3296.7401   -730.30877    553.76728   -1565.8806    933.75948    1368.4398    312.10194            0    2614.3012   -1389.3391   -16.521551      36.6857      36.6857      36.6857            0            0            0   0.49858117
Loop time of 84.2147 on 48 procs for 30000 steps with 3000 atoms

write_data      restart.diEther.final.data
Ewald initialization ...
  G vector (1/distance) = 0.12847
  estimated absolute RMS force accuracy = 0.0363016
  estimated relative force accuracy = 0.000109321
  KSpace vectors: actual max1d max3d = 61 3 171
                  kxmax kymax kzmax  = 3 3 3
