variable        infile index octanol_ua.data   # The name of the (edited) data file

#>>>>>> Simulation settings <<<<<<<

units		 real		#angstroms = length -
atom_style	 full		#How the atoms are defined in the input data file
boundary        p p p           #periodic box in x, y and z
pair_style	 lj/cut/coul/long 14.0    #'lj/cut/coul/long 12.0' for your ethanol simulation
pair_modify     tail yes            #Tail corrections
pair_modify     mix arithmetic      #Lorentz-Berthelot pair interactions between dissimilar atom

# The settings below are additional settings you must add for your ethanol simulation as already detailed in your example NPT LAMMPS script in the tutorial
# For your ethanol homework, change/edit the pair_style line as advised above and uncomment the extra settings below and you should be good to go for this section.

special_bonds   lj/coul 0.0 0.0 0.5
kspace_style    ewald 0.0001
bond_style      harmonic
angle_style     harmonic
dihedral_style  opls

# >>> Using the variable command in LAMMPS to define inputs/settings for the simulation <<<<<<

variable   simulationTemp  index 333     #Simulation temperature
variable   simulationPress equal 0.987	#Simulation pressure

# Output files frequencies
variable        dumpfreq   index 1000          #Output frequency of dump information to dump
variable        thermofreq index 1000          #Output frequency of property information to log
variable        printfreq  index 1000          #Output frequency of information to be printed
variable        restartfreq index 1000000      #Output frequency of restart files

# Simulation run times (equilibration and production)
variable        NVT_equib  index 1000000       # Equilibration run length (in timesteps)
variable        NVT_prod   index 3000000       # Simulation run length  (in timesteps)

# Defining properties to output
# The first expression after the 'variable' command is a user defined name for the variable, it can be anything
# The expression after the 'equal' keyword are LAMMPS special/reserved terms for those property

variable    step        equal step
variable    density     equal density
variable    temp        equal temp
variable    press       equal press
variable    ke          equal ke
variable    pe          equal pe
variable    etotal      equal etotal
variable    enthalpy    equal enthalpy

# >>>>>>>>>>> Reading data, Neighbor list settings, energy minimization, assigning initial velocities & specifying thermodynamic property output style to log files <<<<<<<<<

read_data	octanol_ua.data
  orthogonal box = (0 0 0) to (40 40 40)
  reading atoms ...
  2000 atoms
  scanning bonds ...
  scanning angles ...
  scanning dihedrals ...
  reading bonds ...
  1800 bonds
  reading angles ...
  1600 angles
  reading dihedrals ...
  1400 dihedrals
neighbor        1.0 bin
neigh_modify    delay 0 every 1 check yes page 1000000 one 20000
timestep        1.0

minimize        1e-4 1e-6 10000 100000        #Energy minimize before creating velocities
Ewald initialization ...
  G vector (1/distance) = 0.147428
  estimated absolute RMS force accuracy = 0.041374
  estimated relative force accuracy = 0.000124597
  KSpace vectors: actual max1d max3d = 128 4 364
                  kxmax kymax kzmax  = 4 4 4
  update every 1 steps, delay 0 steps, check yes
Step Temp E_pair E_mol TotEng Press
0            0    278272.25    45807.952     324080.2    1091500.2
Loop time of 2.23506 on 48 procs for 519 steps with 2000 atoms

Minimization stats:
  Stopping criterion = energy tolerance
  Energy initial, next-to-last, final =
  Force two-norm initial, final = 76473.1 25.3948
  Force max component initial, final = 6066.45 5.47673
  Final line search alpha, max atom move = 0.0145911 0.0799117
  Iterations, force evaluations = 519 954

velocity        all create  333 317879265 units box
velocity        all zero linear units box

# The 'velocity' command line above assigns initial velocities to the atoms in our data file, see the LAMMPS 'velocity' command
# The number '886874' is the seed number which helps LAMMPS to consistently assign the same randomized velocities for the same simulation with the same seed number
# Changing that seed number for your simulation of a given system is one easy way to run an 'independent' simulation of the same system as taught in class
# You will need to do this for your homework

thermo_style    custom step vol temp press ke pe etotal enthalpy evdwl ecoul epair ebond eangle edihed eimp emol elong etail lx ly lz xy xz yz density
thermo          1000

fix npt_density all npt temp 333 333 100 iso 0.987 0.987 1000

run 50000
Ewald initialization ...
  G vector (1/distance) = 0.147428
  estimated absolute RMS force accuracy = 0.041374
  estimated relative force accuracy = 0.000124597
  KSpace vectors: actual max1d max3d = 128 4 364
                  kxmax kymax kzmax  = 4 4 4
Step Volume Temp Press KinEng PotEng TotEng Enthalpy E_vdwl E_coul E_pair E_bond E_angle E_dihed E_impro E_mol E_long E_tail Lx Ly Lz Xy Xz Yz Density
519        64000          333    764.13323    1984.2269   -2392.5619     -408.335    304.88736   -1771.8765    3145.3273   -2759.2838    23.571376    41.518217     301.6323            0    366.72189   -4132.7346   -52.673181           40           40           40            0            0            0   0.67579459
Averages over the last 26 of 52 rows, steps 26000 to 50519:
Volume Temp Press KinEng PotEng TotEng Enthalpy E_vdwl E_coul E_pair E_bond E_angle E_dihed E_impro E_mol E_long E_tail Lx Ly Lz Xy Xz Yz Density
54816.8 330.991 -54.6537 1972.26 -1222.48 749.774 706.313 -1636.13 2713.62 -3054.83 608.981 543.217 680.153 0 1832.35 -4132.32 -61.4995 37.9871 37.9871 37.9871 0 0 0 0.789035
Loop time of 105.48 on 48 procs for 50000 steps with 2000 atoms

unfix npt_density

fix reshape_box all deform 1 x final 0.0 37.4495 y final 0.0 37.4495 z final 0.0 37.4495 units box

run 100000
Ewald initialization ...
  G vector (1/distance) = 0.148792
  estimated absolute RMS force accuracy = 0.0374747
  estimated relative force accuracy = 0.000112854
  KSpace vectors: actual max1d max3d = 128 4 364
                  kxmax kymax kzmax  = 4 4 4
Step Volume Temp Press KinEng PotEng TotEng Enthalpy E_vdwl E_coul E_pair E_bond E_angle E_dihed E_impro E_mol E_long E_tail Lx Ly Lz Xy Xz Yz Density
50519    54631.454    332.67638   -1222.6133    1982.2985   -1266.6251    715.67348   -258.43599   -1650.0385     2750.116   -3071.3703    585.60705    556.47779    662.66042            0    1804.7453   -4171.4478   -61.705909    37.944391    37.944391    37.944391            0            0            0    0.7916841
Averages over the last 51 of 102 rows, steps 101000 to 150519:
Volume Temp Press KinEng PotEng TotEng Enthalpy E_vdwl E_coul E_pair E_bond E_angle E_dihed E_impro E_mol E_long E_tail Lx Ly Lz Xy Xz Yz Density
53034.6 332.676 19507.3 1982.3 -1087.11 895.189 15964.6 -1594.84 2735.78 -3030.66 724.414 556.478 662.66 0 1943.55 -4171.6 -63.566 37.5709 37.5709 37.5709 0 0 0 0.815549
Loop time of 150.232 on 48 procs for 100000 steps with 2000 atoms

# >>>>>>>>>  Equilibration run <<<<<<<<<<<<<<<<<<<<<<<<<<<<<<<<<<

fix             NVT_equib all nvt temp 333 333 100

print           "Step Density Temperature Pressure KinEng PotEng TotEng" file Properties_equib_octanol_333.txt
Step Density Temperature Pressure KinEng PotEng TotEng
fix             PRINT_equib all print 1000 "$(v_step) $(v_density) $(v_temp) $(v_press) $(v_pe) $(v_ke) $(v_etotal) $(v_enthalpy)" append Properties_equib_octanol_333.txt title ""
# The 'print' and fix print' commands as used above will create a file named 'Properties_equib.txt' which allows you to quickly make plots to test for equilibration

run             1000000
Ewald initialization ...
  G vector (1/distance) = 0.149129
  estimated absolute RMS force accuracy = 0.0367822
  estimated relative force accuracy = 0.000110768
  KSpace vectors: actual max1d max3d = 128 4 364
                  kxmax kymax kzmax  = 4 4 4
Step Volume Temp Press KinEng PotEng TotEng Enthalpy E_vdwl E_coul E_pair E_bond E_angle E_dihed E_impro E_mol E_long E_tail Lx Ly Lz Xy Xz Yz Density
150519    52521.615    332.67638    26436.322    1982.2985   -937.81729    1044.4813    21294.013   -1572.5638    2740.3333   -3013.2982    856.34275    556.47779    662.66042            0     2075.481   -4181.0677    -64.18469      37.4495      37.4495      37.4495            0            0            0   0.82348675
Loop time of 1783.64 on 48 procs for 1000000 steps with 2000 atoms

unfix           NVT_equib

# >>>>>  Production run <<<<<<<<<<<<<<<<<<<<<<

fix             NVT_prod all nvt temp 333 333 100

print           "Step Density Temperature Pressure KinEng PotEng TotEng" file Properties_prod_octanol_333.txt
Step Density Temperature Pressure KinEng PotEng TotEng
fix             PRINT_prod all print 1000 "$(v_step) $(v_density) $(v_temp) $(v_press) $(v_pe) $(v_ke) $(v_etotal) $(v_enthalpy)" append Properties_prod_octanol_333.txt title ""

dump            DUMP_file all custom 1000 octanol_ua_333.lammpstrj id type x y z xu yu zu vx vy vz mol

run             3000000
Ewald initialization ...
  G vector (1/distance) = 0.149129
  estimated absolute RMS force accuracy = 0.0367822
  estimated relative force accuracy = 0.000110768
  KSpace vectors: actual max1d max3d = 128 4 364
                  kxmax kymax kzmax  = 4 4 4
Step Volume Temp Press KinEng PotEng TotEng Enthalpy E_vdwl E_coul E_pair E_bond E_angle E_dihed E_impro E_mol E_long E_tail Lx Ly Lz Xy Xz Yz Density
1150519    52521.615    339.79899    689.68947    2024.7396   -1454.3552    570.38443    1098.6685   -1655.9236    2561.6636   -3274.6194    655.16768    520.37832    644.71827            0    1820.2643   -4180.3595    -64.18469      37.4495      37.4495      37.4495            0            0            0   0.82348675
Loop time of 5364.88 on 48 procs for 3000000 steps with 2000 atoms

write_data      restart.octanol_ua_333.final.data
Ewald initialization ...
  G vector (1/distance) = 0.149129
  estimated absolute RMS force accuracy = 0.0367822
  estimated relative force accuracy = 0.000110768
  KSpace vectors: actual max1d max3d = 128 4 364
                  kxmax kymax kzmax  = 4 4 4
