variable        infile index octanol_ua.data   # The name of the (edited) data file

#>>>>>> Simulation settings <<<<<<<

units		 real		#angstroms = length -
atom_style	 full		#How the atoms are defined in the input data file
boundary        p p p           #periodic box in x, y and z
pair_style	 lj/cut/coul/long 14.0    #'lj/cut/coul/long 12.0' for your ethanol simulation
pair_modify     tail yes            #Tail corrections
pair_modify     mix arithmetic      #Lorentz-Berthelot pair interactions between dissimilar atom

# The settings below are additional settings you must add for your ethanol simulation as already detailed in your example NPT LAMMPS script in the tutorial
# For your ethanol homework, change/edit the pair_style line as advised above and uncomment the extra settings below and you should be good to go for this section.

special_bonds   lj/coul 0.0 0.0 0.5
kspace_style    ewald 0.0001
bond_style      harmonic
angle_style     harmonic
dihedral_style  opls

# >>> Using the variable command in LAMMPS to define inputs/settings for the simulation <<<<<<

variable   simulationTemp  index 323     #Simulation temperature
variable   simulationPress equal 0.987	#Simulation pressure

# Output files frequencies
variable        dumpfreq   index 1000          #Output frequency of dump information to dump
variable        thermofreq index 1000          #Output frequency of property information to log
variable        printfreq  index 1000          #Output frequency of information to be printed
variable        restartfreq index 1000000      #Output frequency of restart files

# Simulation run times (equilibration and production)
variable        NVT_equib  index 1000000       # Equilibration run length (in timesteps)
variable        NVT_prod   index 3000000       # Simulation run length  (in timesteps)

# Defining properties to output
# The first expression after the 'variable' command is a user defined name for the variable, it can be anything
# The expression after the 'equal' keyword are LAMMPS special/reserved terms for those property

variable    step        equal step
variable    density     equal density
variable    temp        equal temp
variable    press       equal press
variable    ke          equal ke
variable    pe          equal pe
variable    etotal      equal etotal
variable    enthalpy    equal enthalpy

# >>>>>>>>>>> Reading data, Neighbor list settings, energy minimization, assigning initial velocities & specifying thermodynamic property output style to log files <<<<<<<<<

read_data	octanol_ua.data
  orthogonal box = (0 0 0) to (40 40 40)
  reading atoms ...
  2000 atoms
  scanning bonds ...
  scanning angles ...
  scanning dihedrals ...
  reading bonds ...
  1800 bonds
  reading angles ...
  1600 angles
  reading dihedrals ...
  1400 dihedrals
neighbor        1.0 bin
neigh_modify    delay 0 every 1 check yes page 1000000 one 20000
timestep        1.0

minimize        1e-4 1e-6 10000 100000        #Energy minimize before creating velocities
Ewald initialization ...
  G vector (1/distance) = 0.147428
  estimated absolute RMS force accuracy = 0.041374
  estimated relative force accuracy = 0.000124597
  KSpace vectors: actual max1d max3d = 128 4 364
                  kxmax kymax kzmax  = 4 4 4
  update every 1 steps, delay 0 steps, check yes
Step Temp E_pair E_mol TotEng Press
0            0    278272.25    45807.952     324080.2    1091500.2
Loop time of 2.22184 on 48 procs for 519 steps with 2000 atoms

Minimization stats:
  Stopping criterion = energy tolerance
  Energy initial, next-to-last, final =
  Force two-norm initial, final = 76473.1 25.3948
  Force max component initial, final = 6066.45 5.47673
  Final line search alpha, max atom move = 0.0145911 0.0799117
  Iterations, force evaluations = 519 954

velocity        all create  323 317879265 units box
velocity        all zero linear units box

# The 'velocity' command line above assigns initial velocities to the atoms in our data file, see the LAMMPS 'velocity' command
# The number '886874' is the seed number which helps LAMMPS to consistently assign the same randomized velocities for the same simulation with the same seed number
# Changing that seed number for your simulation of a given system is one easy way to run an 'independent' simulation of the same system as taught in class
# You will need to do this for your homework

thermo_style    custom step vol temp press ke pe etotal enthalpy evdwl ecoul epair ebond eangle edihed eimp emol elong etail lx ly lz xy xz yz density
thermo          1000

fix npt_density all npt temp 323 323 100 iso 0.987 0.987 1000

run 50000
Ewald initialization ...
  G vector (1/distance) = 0.147428
  estimated absolute RMS force accuracy = 0.041374
  estimated relative force accuracy = 0.000124597
  KSpace vectors: actual max1d max3d = 128 4 364
                  kxmax kymax kzmax  = 4 4 4
Step Volume Temp Press KinEng PotEng TotEng Enthalpy E_vdwl E_coul E_pair E_bond E_angle E_dihed E_impro E_mol E_long E_tail Lx Ly Lz Xy Xz Yz Density
519        64000          323    721.57339    1924.6405   -2392.5619   -467.92139    205.57671   -1771.8765    3145.3273   -2759.2838    23.571376    41.518217     301.6323            0    366.72189   -4132.7346   -52.673181           40           40           40            0            0            0   0.67579459
Averages over the last 26 of 52 rows, steps 26000 to 50519:
Volume Temp Press KinEng PotEng TotEng Enthalpy E_vdwl E_coul E_pair E_bond E_angle E_dihed E_impro E_mol E_long E_tail Lx Ly Lz Xy Xz Yz Density
54820.7 323.376 139.109 1926.88 -1328.26 598.625 706.706 -1629.28 2642.52 -3118.53 585.585 539.17 665.514 0 1790.27 -4131.77 -61.4996 37.9877 37.9877 37.9877 0 0 0 0.789037
Loop time of 100.1 on 48 procs for 50000 steps with 2000 atoms

unfix npt_density

fix reshape_box all deform 1 x final 0.0 37.4495 y final 0.0 37.4495 z final 0.0 37.4495 units box

run 100000
Ewald initialization ...
  G vector (1/distance) = 0.148762
  estimated absolute RMS force accuracy = 0.0375403
  estimated relative force accuracy = 0.000113051
  KSpace vectors: actual max1d max3d = 128 4 364
                  kxmax kymax kzmax  = 4 4 4
Step Volume Temp Press KinEng PotEng TotEng Enthalpy E_vdwl E_coul E_pair E_bond E_angle E_dihed E_impro E_mol E_long E_tail Lx Ly Lz Xy Xz Yz Density
50519    54820.768     333.1197   -1253.7579    1984.9401   -1306.0229    678.91723   -323.46803   -1640.2547    2672.8036   -3135.5419    622.35426     521.8598    685.30491            0     1829.519   -4168.0908    -61.49282     37.98817     37.98817     37.98817            0            0            0   0.78895017
Averages over the last 51 of 102 rows, steps 101000 to 150519:
Volume Temp Press KinEng PotEng TotEng Enthalpy E_vdwl E_coul E_pair E_bond E_angle E_dihed E_impro E_mol E_long E_tail Lx Ly Lz Xy Xz Yz Density
53080.2 333.12 21266 1984.94 -1087.16 897.784 17338.2 -1577.91 2657.42 -3088.77 794.444 521.86 685.305 0 2001.61 -4168.27 -63.5118 37.5816 37.5816 37.5816 0 0 0 0.814853
Loop time of 151.93 on 48 procs for 100000 steps with 2000 atoms

# >>>>>>>>>  Equilibration run <<<<<<<<<<<<<<<<<<<<<<<<<<<<<<<<<<

fix             NVT_equib all nvt temp 323 323 100

print           "Step Density Temperature Pressure KinEng PotEng TotEng" file Properties_equib_octanolUA_323.txt
Step Density Temperature Pressure KinEng PotEng TotEng
fix             PRINT_equib all print 1000 "$(v_step) $(v_density) $(v_temp) $(v_press) $(v_pe) $(v_ke) $(v_etotal) $(v_enthalpy)" append Properties_equib_octanolUA_323.txt title ""
# The 'print' and fix print' commands as used above will create a file named 'Properties_equib.txt' which allows you to quickly make plots to test for equilibration

run             1000000
Ewald initialization ...
  G vector (1/distance) = 0.149129
  estimated absolute RMS force accuracy = 0.0367822
  estimated relative force accuracy = 0.000110768
  KSpace vectors: actual max1d max3d = 128 4 364
                  kxmax kymax kzmax  = 4 4 4
Step Volume Temp Press KinEng PotEng TotEng Enthalpy E_vdwl E_coul E_pair E_bond E_angle E_dihed E_impro E_mol E_long E_tail Lx Ly Lz Xy Xz Yz Density
150519    52521.615     333.1197    28813.293    1984.9401   -908.20047    1076.7396    23146.969    -1552.435    2662.6451   -3068.3613    952.99614     521.8598    685.30491            0    2160.1609   -4178.5715    -64.18469      37.4495      37.4495      37.4495            0            0            0   0.82348675
Loop time of 1737.46 on 48 procs for 1000000 steps with 2000 atoms

unfix           NVT_equib

# >>>>>  Production run <<<<<<<<<<<<<<<<<<<<<<

fix             NVT_prod all nvt temp 323 323 100

print           "Step Density Temperature Pressure KinEng PotEng TotEng" file Properties_prod_octanolUA_323.txt
Step Density Temperature Pressure KinEng PotEng TotEng
fix             PRINT_prod all print 1000 "$(v_step) $(v_density) $(v_temp) $(v_press) $(v_pe) $(v_ke) $(v_etotal) $(v_enthalpy)" append Properties_prod_octanolUA_323.txt title ""

dump            DUMP_file all custom 1000 octanol_ua_323.lammpstrj id type x y z xu yu zu vx vy vz mol

run             3000000
Ewald initialization ...
  G vector (1/distance) = 0.149129
  estimated absolute RMS force accuracy = 0.0367822
  estimated relative force accuracy = 0.000110768
  KSpace vectors: actual max1d max3d = 128 4 364
                  kxmax kymax kzmax  = 4 4 4
Step Volume Temp Press KinEng PotEng TotEng Enthalpy E_vdwl E_coul E_pair E_bond E_angle E_dihed E_impro E_mol E_long E_tail Lx Ly Lz Xy Xz Yz Density
1150519    52521.615    335.31314    282.59267      1998.01   -1533.2069    464.80314    681.26175   -1678.7319    2564.0637   -3294.7493    601.35823    534.00389    626.18029            0    1761.5424   -4180.0811    -64.18469      37.4495      37.4495      37.4495            0            0            0   0.82348675
Loop time of 5334.68 on 48 procs for 3000000 steps with 2000 atoms

write_data      restart.octanol_ua_323.final.data
Ewald initialization ...
  G vector (1/distance) = 0.149129
  estimated absolute RMS force accuracy = 0.0367822
  estimated relative force accuracy = 0.000110768
  KSpace vectors: actual max1d max3d = 128 4 364
                  kxmax kymax kzmax  = 4 4 4
