variable        infile index octanol_ua.data   # The name of the (edited) data file

#>>>>>> Simulation settings <<<<<<<

units		 real		#angstroms = length -
atom_style	 full		#How the atoms are defined in the input data file
boundary        p p p           #periodic box in x, y and z
pair_style	 lj/cut/coul/long 14.0    #'lj/cut/coul/long 12.0' for your ethanol simulation
pair_modify     tail yes            #Tail corrections
pair_modify     mix arithmetic      #Lorentz-Berthelot pair interactions between dissimilar atom

# The settings below are additional settings you must add for your ethanol simulation as already detailed in your example NPT LAMMPS script in the tutorial
# For your ethanol homework, change/edit the pair_style line as advised above and uncomment the extra settings below and you should be good to go for this section.

special_bonds   lj/coul 0.0 0.0 0.5
kspace_style    ewald 0.0001
bond_style      harmonic
angle_style     harmonic
dihedral_style  opls

# >>> Using the variable command in LAMMPS to define inputs/settings for the simulation <<<<<<

variable   simulationTemp  index 310     #Simulation temperature
variable   simulationPress equal 0.987	#Simulation pressure

# Output files frequencies
variable        dumpfreq   index 1000          #Output frequency of dump information to dump
variable        thermofreq index 1000          #Output frequency of property information to log
variable        printfreq  index 1000          #Output frequency of information to be printed
variable        restartfreq index 1000000      #Output frequency of restart files

# Simulation run times (equilibration and production)
variable        NVT_equib  index 1000000       # Equilibration run length (in timesteps)
variable        NVT_prod   index 3000000       # Simulation run length  (in timesteps)

# Defining properties to output
# The first expression after the 'variable' command is a user defined name for the variable, it can be anything
# The expression after the 'equal' keyword are LAMMPS special/reserved terms for those property

variable    step        equal step
variable    density     equal density
variable    temp        equal temp
variable    press       equal press
variable    ke          equal ke
variable    pe          equal pe
variable    etotal      equal etotal
variable    enthalpy    equal enthalpy

# >>>>>>>>>>> Reading data, Neighbor list settings, energy minimization, assigning initial velocities & specifying thermodynamic property output style to log files <<<<<<<<<

read_data	octanol_ua.data
  orthogonal box = (0 0 0) to (40 40 40)
  reading atoms ...
  2000 atoms
  scanning bonds ...
  scanning angles ...
  scanning dihedrals ...
  reading bonds ...
  1800 bonds
  reading angles ...
  1600 angles
  reading dihedrals ...
  1400 dihedrals
neighbor        1.0 bin
neigh_modify    delay 0 every 1 check yes page 1000000 one 20000
timestep        1.0

minimize        1e-4 1e-6 10000 100000        #Energy minimize before creating velocities
Ewald initialization ...
  G vector (1/distance) = 0.147428
  estimated absolute RMS force accuracy = 0.041374
  estimated relative force accuracy = 0.000124597
  KSpace vectors: actual max1d max3d = 128 4 364
                  kxmax kymax kzmax  = 4 4 4
  update every 1 steps, delay 0 steps, check yes
Step Temp E_pair E_mol TotEng Press
0            0    278272.25    45807.952     324080.2    1091500.2
Loop time of 2.16428 on 48 procs for 519 steps with 2000 atoms

Minimization stats:
  Stopping criterion = energy tolerance
  Energy initial, next-to-last, final =
  Force two-norm initial, final = 76473.1 25.3948
  Force max component initial, final = 6066.45 5.47673
  Final line search alpha, max atom move = 0.0145911 0.0799117
  Iterations, force evaluations = 519 954

velocity        all create  310 317879265 units box
velocity        all zero linear units box

# The 'velocity' command line above assigns initial velocities to the atoms in our data file, see the LAMMPS 'velocity' command
# The number '886874' is the seed number which helps LAMMPS to consistently assign the same randomized velocities for the same simulation with the same seed number
# Changing that seed number for your simulation of a given system is one easy way to run an 'independent' simulation of the same system as taught in class
# You will need to do this for your homework

thermo_style    custom step vol temp press ke pe etotal enthalpy evdwl ecoul epair ebond eangle edihed eimp emol elong etail lx ly lz xy xz yz density
thermo          1000

fix npt_density all npt temp 310 310 100 iso 0.987 0.987 1000

run 50000
Ewald initialization ...
  G vector (1/distance) = 0.147428
  estimated absolute RMS force accuracy = 0.041374
  estimated relative force accuracy = 0.000124597
  KSpace vectors: actual max1d max3d = 128 4 364
                  kxmax kymax kzmax  = 4 4 4
Step Volume Temp Press KinEng PotEng TotEng Enthalpy E_vdwl E_coul E_pair E_bond E_angle E_dihed E_impro E_mol E_long E_tail Lx Ly Lz Xy Xz Yz Density
519        64000          310     666.2456    1847.1782   -2392.5619    -545.3837    76.472855   -1771.8765    3145.3273   -2759.2838    23.571376    41.518217     301.6323            0    366.72189   -4132.7346   -52.673181           40           40           40            0            0            0   0.67579459
Averages over the last 26 of 52 rows, steps 26000 to 50519:
Volume Temp Press KinEng PotEng TotEng Enthalpy E_vdwl E_coul E_pair E_bond E_angle E_dihed E_impro E_mol E_long E_tail Lx Ly Lz Xy Xz Yz Density
54052 311.644 294.619 1856.98 -1458.08 398.897 629.106 -1662.91 2613.62 -3180.88 563.585 510.808 648.403 0 1722.8 -4131.59 -62.3718 37.8095 37.8095 37.8095 0 0 0 0.800227
Loop time of 99.7492 on 48 procs for 50000 steps with 2000 atoms

unfix npt_density

fix reshape_box all deform 1 x final 0.0 37.4495 y final 0.0 37.4495 z final 0.0 37.4495 units box

run 100000
Ewald initialization ...
  G vector (1/distance) = 0.148802
  estimated absolute RMS force accuracy = 0.0374506
  estimated relative force accuracy = 0.000112781
  KSpace vectors: actual max1d max3d = 128 4 364
                  kxmax kymax kzmax  = 4 4 4
Step Volume Temp Press KinEng PotEng TotEng Enthalpy E_vdwl E_coul E_pair E_bond E_angle E_dihed E_impro E_mol E_long E_tail Lx Ly Lz Xy Xz Yz Density
50519    54561.576    319.53271   -27.263579    1903.9801   -1424.7771    479.20299    457.50869   -1609.0491     2630.965   -3146.7086      583.274    494.37131    644.28613            0    1721.9314   -4168.6245   -61.784938    37.928206    37.928206    37.928206            0            0            0   0.79269803
Averages over the last 51 of 102 rows, steps 101000 to 150519:
Volume Temp Press KinEng PotEng TotEng Enthalpy E_vdwl E_coul E_pair E_bond E_angle E_dihed E_impro E_mol E_long E_tail Lx Ly Lz Xy Xz Yz Density
53017.8 319.533 20093.3 1903.98 -1230.03 673.955 16192.9 -1548.25 2615.71 -3101.34 732.655 494.371 644.286 0 1871.31 -4168.79 -63.5861 37.5669 37.5669 37.5669 0 0 0 0.815806
Loop time of 144.995 on 48 procs for 100000 steps with 2000 atoms

# >>>>>>>>>  Equilibration run <<<<<<<<<<<<<<<<<<<<<<<<<<<<<<<<<<

fix             NVT_equib all nvt temp 310 310 100

print           "Step Density Temperature Pressure KinEng PotEng TotEng" file Properties_equib_octanolUA_310.txt
Step Density Temperature Pressure KinEng PotEng TotEng
fix             PRINT_equib all print 1000 "$(v_step) $(v_density) $(v_temp) $(v_press) $(v_pe) $(v_ke) $(v_etotal) $(v_enthalpy)" append Properties_equib_octanolUA_310.txt title ""
# The 'print' and fix print' commands as used above will create a file named 'Properties_equib.txt' which allows you to quickly make plots to test for equilibration

run             1000000
Ewald initialization ...
  G vector (1/distance) = 0.149129
  estimated absolute RMS force accuracy = 0.0367822
  estimated relative force accuracy = 0.000110768
  KSpace vectors: actual max1d max3d = 128 4 364
                  kxmax kymax kzmax  = 4 4 4
Step Volume Temp Press KinEng PotEng TotEng Enthalpy E_vdwl E_coul E_pair E_bond E_angle E_dihed E_impro E_mol E_long E_tail Lx Ly Lz Xy Xz Yz Density
150519    52521.615    319.53271    26813.788    1903.9801   -1081.4375    822.54261    21361.204   -1524.2394    2619.6738   -3082.5166    862.42161    494.37131    644.28613            0     2001.079    -4177.951    -64.18469      37.4495      37.4495      37.4495            0            0            0   0.82348675
Loop time of 1714.78 on 48 procs for 1000000 steps with 2000 atoms

unfix           NVT_equib

# >>>>>  Production run <<<<<<<<<<<<<<<<<<<<<<

fix             NVT_prod all nvt temp 310 310 100

print           "Step Density Temperature Pressure KinEng PotEng TotEng" file Properties_prod_octanolUA_310.txt
Step Density Temperature Pressure KinEng PotEng TotEng
fix             PRINT_prod all print 1000 "$(v_step) $(v_density) $(v_temp) $(v_press) $(v_pe) $(v_ke) $(v_etotal) $(v_enthalpy)" append Properties_prod_octanolUA_310.txt title ""

dump            DUMP_file all custom 1000 octanol_ua_310.lammpstrj id type x y z xu yu zu vx vy vz mol

run             3000000
Ewald initialization ...
  G vector (1/distance) = 0.149129
  estimated absolute RMS force accuracy = 0.0367822
  estimated relative force accuracy = 0.000110768
  KSpace vectors: actual max1d max3d = 128 4 364
                  kxmax kymax kzmax  = 4 4 4
Step Volume Temp Press KinEng PotEng TotEng Enthalpy E_vdwl E_coul E_pair E_bond E_angle E_dihed E_impro E_mol E_long E_tail Lx Ly Lz Xy Xz Yz Density
1150519    52521.615    304.27683    144.99565    1813.0759    -1712.255    100.82082    211.88371   -1736.9599    2539.8453   -3376.0054    590.88116    497.34403     575.5252            0    1663.7504   -4178.8908    -64.18469      37.4495      37.4495      37.4495            0            0            0   0.82348675
Loop time of 5207.88 on 48 procs for 3000000 steps with 2000 atoms

write_data      restart.octanol_ua_310.final.data
Ewald initialization ...
  G vector (1/distance) = 0.149129
  estimated absolute RMS force accuracy = 0.0367822
  estimated relative force accuracy = 0.000110768
  KSpace vectors: actual max1d max3d = 128 4 364
                  kxmax kymax kzmax  = 4 4 4
