variable        infile index octanol.data   # The name of the (edited) data file

#>>>>>> Simulation settings <<<<<<<

units		 real		#angstroms = length -
atom_style	 full		#How the atoms are defined in the input data file
boundary        p p p           #periodic box in x, y and z
pair_style	 lj/cut/coul/long 14.0    #'lj/cut/coul/long 12.0' for your ethanol simulation
pair_modify     tail yes            #Tail corrections
pair_modify     mix arithmetic      #Lorentz-Berthelot pair interactions between dissimilar atom

# The settings below are additional settings you must add for your ethanol simulation as already detailed in your example NPT LAMMPS script in the tutorial
# For your ethanol homework, change/edit the pair_style line as advised above and uncomment the extra settings below and you should be good to go for this section.

special_bonds   lj/coul 0.0 0.0 0.5
kspace_style    ewald 0.0001
bond_style      harmonic
angle_style     harmonic
dihedral_style  opls

# >>> Using the variable command in LAMMPS to define inputs/settings for the simulation <<<<<<

variable   simulationTemp  index 310     #Simulation temperature
variable   simulationPress equal 0.987	#Simulation pressure

# Output files frequencies
variable        dumpfreq   index 1000          #Output frequency of dump information to dump
variable        thermofreq index 1000          #Output frequency of property information to log
variable        printfreq  index 1000          #Output frequency of information to be printed
variable        restartfreq index 1000000      #Output frequency of restart files

# Simulation run times (equilibration and production)
variable        NVT_equib  index 100000       # Equilibration run length (in timesteps)
variable        NVT_prod   index 30000       # Simulation run length  (in timesteps)

# Defining properties to output
# The first expression after the 'variable' command is a user defined name for the variable, it can be anything
# The expression after the 'equal' keyword are LAMMPS special/reserved terms for those property

variable    step        equal step
variable    density     equal density
variable    temp        equal temp
variable    press       equal press
variable    ke          equal ke
variable    pe          equal pe
variable    etotal      equal etotal
variable    enthalpy    equal enthalpy

# >>>>>>>>>>> Reading data, Neighbor list settings, energy minimization, assigning initial velocities & specifying thermodynamic property output style to log files <<<<<<<<<

read_data	octanol.data
  orthogonal box = (0 0 0) to (40 40 40)
  reading atoms ...
  5400 atoms
  scanning bonds ...
  scanning angles ...
  scanning dihedrals ...
  reading bonds ...
  5200 bonds
  reading angles ...
  9800 angles
  reading dihedrals ...
  13200 dihedrals
neighbor        1.0 bin
neigh_modify    delay 0 every 1 check yes page 1000000 one 20000
timestep        1.0

minimize        1e-4 1e-6 10000 100000        #Energy minimize before creating velocities
Ewald initialization ...
  G vector (1/distance) = 0.140701
  estimated absolute RMS force accuracy = 0.0347754
  estimated relative force accuracy = 0.000104725
  KSpace vectors: actual max1d max3d = 128 4 364
                  kxmax kymax kzmax  = 4 4 4
  update every 1 steps, delay 0 steps, check yes
Step Temp E_pair E_mol TotEng Press
0            0     3405.817    1701.0249    5106.8419    4097.4389
Loop time of 6.40473 on 48 procs for 518 steps with 5400 atoms

Minimization stats:
  Stopping criterion = energy tolerance
  Energy initial, next-to-last, final =
  Force two-norm initial, final = 3350.81 23.069
  Force max component initial, final = 845.808 2.76546
  Final line search alpha, max atom move = 0.0129189 0.0357266
  Iterations, force evaluations = 518 1030

velocity        all create  310 317879265 units box
velocity        all zero linear units box

# The 'velocity' command line above assigns initial velocities to the atoms in our data file, see the LAMMPS 'velocity' command
# The number '886874' is the seed number which helps LAMMPS to consistently assign the same randomized velocities for the same simulation with the same seed number
# Changing that seed number for your simulation of a given system is one easy way to run an 'independent' simulation of the same system as taught in class
# You will need to do this for your homework

thermo_style    custom step vol temp press ke pe etotal enthalpy evdwl ecoul epair ebond eangle edihed eimp emol elong etail lx ly lz xy xz yz density
thermo          1000

fix npt_density all npt temp 310 310 100 iso 0.987 0.987 1000

run 50000
Ewald initialization ...
  G vector (1/distance) = 0.140701
  estimated absolute RMS force accuracy = 0.0347754
  estimated relative force accuracy = 0.000104725
  KSpace vectors: actual max1d max3d = 128 4 364
                  kxmax kymax kzmax  = 4 4 4
Step Volume Temp Press KinEng PotEng TotEng Enthalpy E_vdwl E_coul E_pair E_bond E_angle E_dihed E_impro E_mol E_long E_tail Lx Ly Lz Xy Xz Yz Density
518        64000          310    2330.8784     4988.952   -1423.6798    3565.2722    5740.8543   -2105.2356    4220.8927   -2313.0078    42.286151    240.31421     606.7276            0    889.32797   -4428.6649    -42.52282           40           40           40            0            0            0   0.67578079
Averages over the last 26 of 52 rows, steps 26000 to 50518:
Volume Temp Press KinEng PotEng TotEng Enthalpy E_vdwl E_coul E_pair E_bond E_angle E_dihed E_impro E_mol E_long E_tail Lx Ly Lz Xy Xz Yz Density
54443.3 310.17 62.1834 4991.69 2787.74 7779.42 7828.38 -1818.67 3981.87 -2268.87 1696.71 2536.5 823.392 0 5056.61 -4432.07 -49.9889 37.9006 37.9006 37.9006 0 0 0 0.794432
Loop time of 250.411 on 48 procs for 50000 steps with 5400 atoms

unfix npt_density

fix reshape_box all deform 1 x final 0.0 37.4456 y final 0.0 37.4456 z final 0.0 37.4456 units box

run 100000
Ewald initialization ...
  G vector (1/distance) = 0.142158
  estimated absolute RMS force accuracy = 0.0339353
  estimated relative force accuracy = 0.000102195
  KSpace vectors: actual max1d max3d = 128 4 364
                  kxmax kymax kzmax  = 4 4 4
Step Volume Temp Press KinEng PotEng TotEng Enthalpy E_vdwl E_coul E_pair E_bond E_angle E_dihed E_impro E_mol E_long E_tail Lx Ly Lz Xy Xz Yz Density
50518    54453.269    310.65749    1051.6914    4999.5332    2764.5052    7764.0385     8599.234   -1819.5179    3996.1566   -2302.0239    1729.7538     2531.486    805.28938            0    5066.5292   -4478.6627   -49.977908    37.903093    37.903093    37.903093            0            0            0   0.79425847
Averages over the last 51 of 102 rows, steps 101000 to 150518:
Volume Temp Press KinEng PotEng TotEng Enthalpy E_vdwl E_coul E_pair E_bond E_angle E_dihed E_impro E_mol E_long E_tail Lx Ly Lz Xy Xz Yz Density
52979.2 310.657 22147.6 4999.53 2926.64 7926.18 25021 -1684.11 3990.35 -2172.58 1762.45 2531.49 805.289 0 5099.22 -4478.82 -51.37 37.5578 37.5578 37.5578 0 0 0 0.816382
Loop time of 409.39 on 48 procs for 100000 steps with 5400 atoms

# >>>>>>>>>  Equilibration run <<<<<<<<<<<<<<<<<<<<<<<<<<<<<<<<<<

fix             NVT_equib all nvt temp 310 310 100

print           "Step Density Temperature Pressure KinEng PotEng TotEng" file Properties_equib_310k.txt
Step Density Temperature Pressure KinEng PotEng TotEng
fix             PRINT_equib all print 1000 "$(v_step) $(v_density) $(v_temp) $(v_press) $(v_pe) $(v_ke) $(v_etotal) $(v_enthalpy)" append Properties_equib_310k.txt title ""
# The 'print' and fix print' commands as used above will create a file named 'Properties_equib.txt' which allows you to quickly make plots to test for equilibration

run             100000
Ewald initialization ...
  G vector (1/distance) = 0.142485
  estimated absolute RMS force accuracy = 0.0338118
  estimated relative force accuracy = 0.000101823
  KSpace vectors: actual max1d max3d = 128 4 364
                  kxmax kymax kzmax  = 4 4 4
Step Volume Temp Press KinEng PotEng TotEng Enthalpy E_vdwl E_coul E_pair E_bond E_angle E_dihed E_impro E_mol E_long E_tail Lx Ly Lz Xy Xz Yz Density
150518    52505.208    310.65749    29203.952    4999.5332    3064.9972    8064.5304    30427.007   -1633.3713    3998.8997   -2123.5947    1851.8165     2531.486    805.28938            0    5188.5919   -4489.1231   -51.832201      37.4456      37.4456      37.4456            0            0            0   0.82372725
Loop time of 458.16 on 48 procs for 100000 steps with 5400 atoms

unfix           NVT_equib

# >>>>>  Production run <<<<<<<<<<<<<<<<<<<<<<

fix             NVT_prod all nvt temp 310 310 100

print           "Step Density Temperature Pressure KinEng PotEng TotEng" file Properties_prod_310k.txt
Step Density Temperature Pressure KinEng PotEng TotEng
fix             PRINT_prod all print 1000 "$(v_step) $(v_density) $(v_temp) $(v_press) $(v_pe) $(v_ke) $(v_etotal) $(v_enthalpy)" append Properties_prod_310k.txt title ""

dump            DUMP_file all custom 1000 octanol_310k.lammpstrj id type x y z xu yu zu vx vy vz mol

run             30000
Ewald initialization ...
  G vector (1/distance) = 0.142485
  estimated absolute RMS force accuracy = 0.0338118
  estimated relative force accuracy = 0.000101823
  KSpace vectors: actual max1d max3d = 128 4 364
                  kxmax kymax kzmax  = 4 4 4
Step Volume Temp Press KinEng PotEng TotEng Enthalpy E_vdwl E_coul E_pair E_bond E_angle E_dihed E_impro E_mol E_long E_tail Lx Ly Lz Xy Xz Yz Density
250518    52505.208    309.94794    -153.1725    4988.1142    2425.0797     7413.194    7295.9045   -1927.0045    3886.1841   -2530.3429    1700.7913    2482.6258    772.00551            0    4955.4226   -4489.5225   -51.832201      37.4456      37.4456      37.4456            0            0            0   0.82372725
Loop time of 136.653 on 48 procs for 30000 steps with 5400 atoms

write_data      restart.octanol_310k.final.data
Ewald initialization ...
  G vector (1/distance) = 0.142485
  estimated absolute RMS force accuracy = 0.0338118
  estimated relative force accuracy = 0.000101823
  KSpace vectors: actual max1d max3d = 128 4 364
                  kxmax kymax kzmax  = 4 4 4
