variable        infile index octanol.data   # The name of the (edited) data file

#>>>>>> Simulation settings <<<<<<<

units		 real		#angstroms = length -
atom_style	 full		#How the atoms are defined in the input data file
boundary        p p p           #periodic box in x, y and z
pair_style	 lj/cut/coul/long 14.0    #'lj/cut/coul/long 12.0' for your ethanol simulation
pair_modify     tail yes            #Tail corrections
pair_modify     mix arithmetic      #Lorentz-Berthelot pair interactions between dissimilar atom

# The settings below are additional settings you must add for your ethanol simulation as already detailed in your example NPT LAMMPS script in the tutorial
# For your ethanol homework, change/edit the pair_style line as advised above and uncomment the extra settings below and you should be good to go for this section.

special_bonds   lj/coul 0.0 0.0 0.5
kspace_style    ewald 0.0001
bond_style      harmonic
angle_style     harmonic
dihedral_style  opls

# >>> Using the variable command in LAMMPS to define inputs/settings for the simulation <<<<<<

variable   simulationTemp  index 323     #Simulation temperature
variable   simulationPress equal 0.987	#Simulation pressure

# Output files frequencies
variable        dumpfreq   index 1000          #Output frequency of dump information to dump
variable        thermofreq index 1000          #Output frequency of property information to log
variable        printfreq  index 1000          #Output frequency of information to be printed
variable        restartfreq index 1000000      #Output frequency of restart files

# Simulation run times (equilibration and production)
variable        NVT_equib  index 100000       # Equilibration run length (in timesteps)
variable        NVT_prod   index 30000       # Simulation run length  (in timesteps)

# Defining properties to output
# The first expression after the 'variable' command is a user defined name for the variable, it can be anything
# The expression after the 'equal' keyword are LAMMPS special/reserved terms for those property

variable    step        equal step
variable    density     equal density
variable    temp        equal temp
variable    press       equal press
variable    ke          equal ke
variable    pe          equal pe
variable    etotal      equal etotal
variable    enthalpy    equal enthalpy

# >>>>>>>>>>> Reading data, Neighbor list settings, energy minimization, assigning initial velocities & specifying thermodynamic property output style to log files <<<<<<<<<

read_data	octanol.data
  orthogonal box = (0 0 0) to (40 40 40)
  reading atoms ...
  5400 atoms
  scanning bonds ...
  scanning angles ...
  scanning dihedrals ...
  reading bonds ...
  5200 bonds
  reading angles ...
  9800 angles
  reading dihedrals ...
  13200 dihedrals
neighbor        1.0 bin
neigh_modify    delay 0 every 1 check yes page 1000000 one 20000
timestep        1.0

minimize        1e-4 1e-6 10000 100000        #Energy minimize before creating velocities
Ewald initialization ...
  G vector (1/distance) = 0.140701
  estimated absolute RMS force accuracy = 0.0347754
  estimated relative force accuracy = 0.000104725
  KSpace vectors: actual max1d max3d = 128 4 364
                  kxmax kymax kzmax  = 4 4 4
  update every 1 steps, delay 0 steps, check yes
Step Temp E_pair E_mol TotEng Press
0            0     3405.817    1701.0249    5106.8419    4097.4389
Loop time of 6.18167 on 48 procs for 518 steps with 5400 atoms

Minimization stats:
  Stopping criterion = energy tolerance
  Energy initial, next-to-last, final =
  Force two-norm initial, final = 3350.81 23.069
  Force max component initial, final = 845.808 2.76546
  Final line search alpha, max atom move = 0.0129189 0.0357266
  Iterations, force evaluations = 518 1030

velocity        all create  323 317879265 units box
velocity        all zero linear units box

# The 'velocity' command line above assigns initial velocities to the atoms in our data file, see the LAMMPS 'velocity' command
# The number '886874' is the seed number which helps LAMMPS to consistently assign the same randomized velocities for the same simulation with the same seed number
# Changing that seed number for your simulation of a given system is one easy way to run an 'independent' simulation of the same system as taught in class
# You will need to do this for your homework

thermo_style    custom step vol temp press ke pe etotal enthalpy evdwl ecoul epair ebond eangle edihed eimp emol elong etail lx ly lz xy xz yz density
thermo          1000

fix npt_density all npt temp 323 323 100 iso 0.987 0.987 1000

run 50000
Ewald initialization ...
  G vector (1/distance) = 0.140701
  estimated absolute RMS force accuracy = 0.0347754
  estimated relative force accuracy = 0.000104725
  KSpace vectors: actual max1d max3d = 128 4 364
                  kxmax kymax kzmax  = 4 4 4
Step Volume Temp Press KinEng PotEng TotEng Enthalpy E_vdwl E_coul E_pair E_bond E_angle E_dihed E_impro E_mol E_long E_tail Lx Ly Lz Xy Xz Yz Density
518        64000          323    2480.3105    5198.1661   -1423.6798    3774.4863    6089.5444   -2105.2356    4220.8927   -2313.0078    42.286151    240.31421     606.7276            0    889.32797   -4428.6649    -42.52282           40           40           40            0            0            0   0.67578079
Averages over the last 26 of 52 rows, steps 26000 to 50518:
Volume Temp Press KinEng PotEng TotEng Enthalpy E_vdwl E_coul E_pair E_bond E_angle E_dihed E_impro E_mol E_long E_tail Lx Ly Lz Xy Xz Yz Density
54700.4 322.975 155.582 5197.76 2954.4 8152.15 8276.6 -1772.29 3924.42 -2280.76 1772.68 2636.3 826.176 0 5235.16 -4432.89 -49.7576 37.9599 37.9599 37.9599 0 0 0 0.790757
Loop time of 251.183 on 48 procs for 50000 steps with 5400 atoms

unfix npt_density

fix reshape_box all deform 1 x final 0.0 37.4456 y final 0.0 37.4456 z final 0.0 37.4456 units box

run 100000
Ewald initialization ...
  G vector (1/distance) = 0.14229
  estimated absolute RMS force accuracy = 0.0338832
  estimated relative force accuracy = 0.000102038
  KSpace vectors: actual max1d max3d = 128 4 364
                  kxmax kymax kzmax  = 4 4 4
Step Volume Temp Press KinEng PotEng TotEng Enthalpy E_vdwl E_coul E_pair E_bond E_angle E_dihed E_impro E_mol E_long E_tail Lx Ly Lz Xy Xz Yz Density
50518    53660.232    326.23125   -289.82249    5250.1679    2882.5737    8132.7416    7905.9325   -1837.0471    3916.0633   -2403.5597    1827.4891    2638.1969    820.44742            0    5286.1334    -4482.576   -50.716525     37.71819     37.71819     37.71819            0            0            0   0.80599671
Averages over the last 51 of 102 rows, steps 101000 to 150518:
Volume Temp Press KinEng PotEng TotEng Enthalpy E_vdwl E_coul E_pair E_bond E_angle E_dihed E_impro E_mol E_long E_tail Lx Ly Lz Xy Xz Yz Density
52787.1 326.231 12412.4 5250.17 2905.67 8155.83 17705.3 -1760.06 3913.97 -2328.76 1775.78 2638.2 820.447 0 5234.42 -4482.66 -51.5559 37.5125 37.5125 37.5125 0 0 0 0.819336
Loop time of 401.728 on 48 procs for 100000 steps with 5400 atoms

# >>>>>>>>>  Equilibration run <<<<<<<<<<<<<<<<<<<<<<<<<<<<<<<<<<

fix             NVT_equib all nvt temp 323 323 100

print           "Step Density Temperature Pressure KinEng PotEng TotEng" file Properties_equib_323k.txt
Step Density Temperature Pressure KinEng PotEng TotEng
fix             PRINT_equib all print 1000 "$(v_step) $(v_density) $(v_temp) $(v_press) $(v_pe) $(v_ke) $(v_etotal) $(v_enthalpy)" append Properties_equib_323k.txt title ""
# The 'print' and fix print' commands as used above will create a file named 'Properties_equib.txt' which allows you to quickly make plots to test for equilibration

run             100000
Ewald initialization ...
  G vector (1/distance) = 0.142485
  estimated absolute RMS force accuracy = 0.0338118
  estimated relative force accuracy = 0.000101823
  KSpace vectors: actual max1d max3d = 128 4 364
                  kxmax kymax kzmax  = 4 4 4
Step Volume Temp Press KinEng PotEng TotEng Enthalpy E_vdwl E_coul E_pair E_bond E_angle E_dihed E_impro E_mol E_long E_tail Lx Ly Lz Xy Xz Yz Density
150518    52505.208    326.23125    16609.746    5250.1679    2943.3341     8193.502    20912.159   -1732.7329    3918.9932   -2302.5513    1787.2411    2638.1969    820.44742            0    5245.8854   -4488.8116   -51.832201      37.4456      37.4456      37.4456            0            0            0   0.82372725
Loop time of 457.374 on 48 procs for 100000 steps with 5400 atoms

unfix           NVT_equib

# >>>>>  Production run <<<<<<<<<<<<<<<<<<<<<<

fix             NVT_prod all nvt temp 323 323 100

print           "Step Density Temperature Pressure KinEng PotEng TotEng" file Properties_prod_323k.txt
Step Density Temperature Pressure KinEng PotEng TotEng
fix             PRINT_prod all print 1000 "$(v_step) $(v_density) $(v_temp) $(v_press) $(v_pe) $(v_ke) $(v_etotal) $(v_enthalpy)" append Properties_prod_323k.txt title ""

dump            DUMP_file all custom 1000 octanol_323k.lammpstrj id type x y z xu yu zu vx vy vz mol

run             30000
Ewald initialization ...
  G vector (1/distance) = 0.142485
  estimated absolute RMS force accuracy = 0.0338118
  estimated relative force accuracy = 0.000101823
  KSpace vectors: actual max1d max3d = 128 4 364
                  kxmax kymax kzmax  = 4 4 4
Step Volume Temp Press KinEng PotEng TotEng Enthalpy E_vdwl E_coul E_pair E_bond E_angle E_dihed E_impro E_mol E_long E_tail Lx Ly Lz Xy Xz Yz Density
250518    52505.208     323.9109    1187.2404    5212.8255    2778.9613    7991.7868    8900.8979   -1882.9575    3878.2719   -2494.3377    1799.9718    2672.9557    800.37152            0     5273.299   -4489.6522   -51.832201      37.4456      37.4456      37.4456            0            0            0   0.82372725
Loop time of 135.928 on 48 procs for 30000 steps with 5400 atoms

write_data      restart.octanol_323k.final.data
Ewald initialization ...
  G vector (1/distance) = 0.142485
  estimated absolute RMS force accuracy = 0.0338118
  estimated relative force accuracy = 0.000101823
  KSpace vectors: actual max1d max3d = 128 4 364
                  kxmax kymax kzmax  = 4 4 4
