variable        infile index Coctane.data   # The name of the (edited) data file

#>>>>>> Simulation settings <<<<<<<

units		 real		#angstroms = length -
atom_style	 full		#How the atoms are defined in the input data file
boundary        p p p           #periodic box in x, y and z
pair_style	 lj/cut/coul/long 14.0    #'lj/cut/coul/long 12.0' for your ethanol simulation
pair_modify     tail yes            #Tail corrections
pair_modify     mix arithmetic      #Lorentz-Berthelot pair interactions between dissimilar atom

# The settings below are additional settings you must add for your ethanol simulation as already detailed in your example NPT LAMMPS script in the tutorial
# For your ethanol homework, change/edit the pair_style line as advised above and uncomment the extra settings below and you should be good to go for this section.

special_bonds   lj/coul 0.0 0.0 0.5
kspace_style    ewald 0.0001
bond_style      harmonic
angle_style     harmonic
dihedral_style  opls

# >>> Using the variable command in LAMMPS to define inputs/settings for the simulation <<<<<<

variable   simulationTemp  index 310     #Simulation temperature
variable   simulationPress equal 0.987	#Simulation pressure

# Output files frequencies
variable        dumpfreq   index 1000          #Output frequency of dump information to dump
variable        thermofreq index 1000          #Output frequency of property information to log
variable        printfreq  index 1000          #Output frequency of information to be printed
variable        restartfreq index 1000000      #Output frequency of restart files

# Simulation run times (equilibration and production)
variable        NVT_equib  index 100000       # Equilibration run length (in timesteps)
variable        NVT_prod   index 30000       # Simulation run length  (in timesteps)

# Defining properties to output
# The first expression after the 'variable' command is a user defined name for the variable, it can be anything
# The expression after the 'equal' keyword are LAMMPS special/reserved terms for those property

variable    step        equal step
variable    density     equal density
variable    temp        equal temp
variable    press       equal press
variable    ke          equal ke
variable    pe          equal pe
variable    etotal      equal etotal
variable    enthalpy    equal enthalpy

# >>>>>>>>>>> Reading data, Neighbor list settings, energy minimization, assigning initial velocities & specifying thermodynamic property output style to log files <<<<<<<<<

read_data	Coctane.data
  orthogonal box = (0 0 0) to (40 40 40)
  reading atoms ...
  6400 atoms
  scanning bonds ...
  scanning angles ...
  scanning dihedrals ...
  reading bonds ...
  6200 bonds
  reading angles ...
  12000 angles
  reading dihedrals ...
  16200 dihedrals
neighbor        1.0 bin
neigh_modify    delay 0 every 1 check yes page 1000000 one 20000
timestep        1.0

minimize        1e-4 1e-6 10000 100000        #Energy minimize before creating velocities
Ewald initialization ...
  G vector (1/distance) = 0.115546
  estimated absolute RMS force accuracy = 0.0338045
  estimated relative force accuracy = 0.000101801
  KSpace vectors: actual max1d max3d = 61 3 171
                  kxmax kymax kzmax  = 3 3 3
  update every 1 steps, delay 0 steps, check yes
Step Temp E_pair E_mol TotEng Press
0            0 1.1670777e+16    1625.4087 1.1670777e+16 5.0015419e+16
Loop time of 15.3497 on 48 procs for 416 steps with 6400 atoms

Minimization stats:
  Stopping criterion = linesearch alpha is zero
  Energy initial, next-to-last, final =
  Force two-norm initial, final = 1.6588e+18 19.9906
  Force max component initial, final = 1.01988e+18 2.65374
  Final line search alpha, max atom move = 1.70198e-11 4.51661e-11
  Iterations, force evaluations = 416 827

velocity        all create  310 317879265 units box
velocity        all zero linear units box

# The 'velocity' command line above assigns initial velocities to the atoms in our data file, see the LAMMPS 'velocity' command
# The number '886874' is the seed number which helps LAMMPS to consistently assign the same randomized velocities for the same simulation with the same seed number
# Changing that seed number for your simulation of a given system is one easy way to run an 'independent' simulation of the same system as taught in class
# You will need to do this for your homework

thermo_style    custom step vol temp press ke pe etotal enthalpy evdwl ecoul epair ebond eangle edihed eimp emol elong etail lx ly lz xy xz yz density
thermo          1000

fix npt_density all npt temp 310 310 100 iso 0.987 0.987 1000

run 50000
Ewald initialization ...
  G vector (1/distance) = 0.115546
  estimated absolute RMS force accuracy = 0.0338045
  estimated relative force accuracy = 0.000101801
  KSpace vectors: actual max1d max3d = 61 3 171
                  kxmax kymax kzmax  = 3 3 3
Step Volume Temp Press KinEng PotEng TotEng Enthalpy E_vdwl E_coul E_pair E_bond E_angle E_dihed E_impro E_mol E_long E_tail Lx Ly Lz Xy Xz Yz Density
416        64000          310    2624.7795    5913.0031   -1195.4854    4717.5177    7167.4195   -2789.2319    1678.1025   -2233.0457    38.621252    315.23584    683.70319            0    1037.5603   -1121.9164   -57.147272           40           40           40            0            0            0   0.73833079
Averages over the last 26 of 52 rows, steps 26000 to 50416:
Volume Temp Press KinEng PotEng TotEng Enthalpy E_vdwl E_coul E_pair E_bond E_angle E_dihed E_impro E_mol E_long E_tail Lx Ly Lz Xy Xz Yz Density
66131.6 309.313 -47.9213 5899.91 4535.48 10435.4 10387.9 -2116.47 1756.09 -1482.43 1992.73 3113.34 911.85 0 6017.91 -1122.05 -55.3094 40.4389 40.4389 40.4389 0 0 0 0.714586
Loop time of 288.228 on 48 procs for 50000 steps with 6400 atoms

unfix npt_density

fix reshape_box all deform 1 x final 0.0 37.4456 y final 0.0 37.4456 z final 0.0 37.4456 units box

run 100000
Ewald initialization ...
  G vector (1/distance) = 0.115446
  estimated absolute RMS force accuracy = 0.0338213
  estimated relative force accuracy = 0.000101852
  KSpace vectors: actual max1d max3d = 61 3 171
                  kxmax kymax kzmax  = 3 3 3
Step Volume Temp Press KinEng PotEng TotEng Enthalpy E_vdwl E_coul E_pair E_bond E_angle E_dihed E_impro E_mol E_long E_tail Lx Ly Lz Xy Xz Yz Density
50416     64582.45    304.13887    854.23708    5801.2066    4514.9971    10316.204    11120.783   -2192.4942    1769.2701    -1544.297    2046.4288    3142.4583     870.4071            0    6059.2941   -1121.0729   -56.631878    40.120977    40.120977    40.120977            0            0            0     0.731672
Averages over the last 51 of 102 rows, steps 101000 to 150416:
Volume Temp Press KinEng PotEng TotEng Enthalpy E_vdwl E_coul E_pair E_bond E_angle E_dihed E_impro E_mol E_long E_tail Lx Ly Lz Xy Xz Yz Density
55320.2 304.139 130253 5801.21 12492.7 18293.9 122658 -855.841 1806.56 -170.375 8650.16 3142.46 870.407 0 12663 -1121.09 -66.1772 38.0991 38.0991 38.0991 0 0 0 0.854995
Loop time of 492.642 on 48 procs for 100000 steps with 6400 atoms

# >>>>>>>>>  Equilibration run <<<<<<<<<<<<<<<<<<<<<<<<<<<<<<<<<<

fix             NVT_equib all nvt temp 310 310 100

print           "Step Density Temperature Pressure KinEng PotEng TotEng" file Properties_equib_Coctane.txt
Step Density Temperature Pressure KinEng PotEng TotEng
fix             PRINT_equib all print 1000 "$(v_step) $(v_density) $(v_temp) $(v_press) $(v_pe) $(v_ke) $(v_etotal) $(v_enthalpy)" append Properties_equib_Coctane.txt title ""
# The 'print' and fix print' commands as used above will create a file named 'Properties_equib.txt' which allows you to quickly make plots to test for equilibration

run             100000
Ewald initialization ...
  G vector (1/distance) = 0.117711
  estimated absolute RMS force accuracy = 0.0335174
  estimated relative force accuracy = 0.000100937
  KSpace vectors: actual max1d max3d = 61 3 171
                  kxmax kymax kzmax  = 3 3 3
Step Volume Temp Press KinEng PotEng TotEng Enthalpy E_vdwl E_coul E_pair E_bond E_angle E_dihed E_impro E_mol E_long E_tail Lx Ly Lz Xy Xz Yz Density
150416    52505.208    304.13887     179979.3    5801.2066    18250.592    24051.799    161868.17   -49.908151     1840.543    647.54385    13590.183    3142.4583     870.4071            0    17603.048    -1143.091   -69.658336      37.4456      37.4456      37.4456            0            0            0   0.89997111
Loop time of 567.845 on 48 procs for 100000 steps with 6400 atoms

unfix           NVT_equib

# >>>>>  Production run <<<<<<<<<<<<<<<<<<<<<<

fix             NVT_prod all nvt temp 310 310 100

print           "Step Density Temperature Pressure KinEng PotEng TotEng" file Properties_prod_Coctane.txt
Step Density Temperature Pressure KinEng PotEng TotEng
fix             PRINT_prod all print 1000 "$(v_step) $(v_density) $(v_temp) $(v_press) $(v_pe) $(v_ke) $(v_etotal) $(v_enthalpy)" append Properties_prod_Coctane.txt title ""

dump            DUMP_file all custom 1000 Coctane.lammpstrj id type x y z xu yu zu vx vy vz mol

run             30000
Ewald initialization ...
  G vector (1/distance) = 0.117711
  estimated absolute RMS force accuracy = 0.0335174
  estimated relative force accuracy = 0.000100937
  KSpace vectors: actual max1d max3d = 61 3 171
                  kxmax kymax kzmax  = 3 3 3
Step Volume Temp Press KinEng PotEng TotEng Enthalpy E_vdwl E_coul E_pair E_bond E_angle E_dihed E_impro E_mol E_long E_tail Lx Ly Lz Xy Xz Yz Density
250416    52505.208    306.75286    7681.8335    5851.0665    3934.9531    9786.0196    15668.265   -2735.6168    1781.2281   -2097.4746    1977.3348    3135.0785    920.01437            0    6032.4277   -1143.0859   -69.658336      37.4456      37.4456      37.4456            0            0            0   0.89997111
Loop time of 174.189 on 48 procs for 30000 steps with 6400 atoms

write_data      restart.Coctane.final.data
Ewald initialization ...
  G vector (1/distance) = 0.117711
  estimated absolute RMS force accuracy = 0.0335174
  estimated relative force accuracy = 0.000100937
  KSpace vectors: actual max1d max3d = 61 3 171
                  kxmax kymax kzmax  = 3 3 3
